<?xml version="1.0" encoding="UTF-8"?>

<!-- generated on 2025-11-21 23:03:41.641538 by Eclipse SUMO randomTrips.py v1_25_0+0000-ac6c5a6752d
<configuration>
    <net-file value="data\scenarios\medium\network.net.xml"/>
    <route-file value="data\scenarios\medium\routes.rou.xml"/>
    <prefix value="veh"/>
    <trip-attributes value="departLane=&quot;best&quot; departSpeed=&quot;max&quot; departPos=&quot;base&quot;"/>
    <seed value="12"/>
    <period value="4.0"/>
    <binomial value="1"/>
</configuration>
-->

<!-- generated on 2025-11-21T23:03:41.487070+05:30 by Eclipse SUMO duarouter 1.25.0
<duarouterConfiguration xmlns:xsi="http://www.w3.org/2001/XMLSchema-instance" xsi:noNamespaceSchemaLocation="http://sumo.dlr.de/xsd/duarouterConfiguration.xsd">

    <input>
        <net-file value="data\scenarios\medium\network.net.xml"/>
        <route-files value="trips.trips.xml"/>
    </input>

    <output>
        <output-file value="data\scenarios\medium\routes.rou.xml"/>
        <alternatives-output value="NUL"/>
    </output>

    <time>
        <begin value="0"/>
        <end value="3600"/>
    </time>

    <report>
        <no-warnings value="true"/>
        <ignore-errors value="true"/>
        <no-step-log value="true"/>
    </report>

</duarouterConfiguration>
-->

<routes xmlns:xsi="http://www.w3.org/2001/XMLSchema-instance" xsi:noNamespaceSchemaLocation="http://sumo.dlr.de/xsd/routes_file.xsd">
    <vehicle id="veh0" depart="3.00" departLane="best" departPos="base" departSpeed="max">
        <route edges="A0A1 A1B1 B1B0 B0B1"/>
    </vehicle>
    <vehicle id="veh1" depart="10.00" departLane="best" departPos="base" departSpeed="max">
        <route edges="B1A1 A1A2"/>
    </vehicle>
    <vehicle id="veh2" depart="12.00" departLane="best" departPos="base" departSpeed="max">
        <route edges="C1B1 B1A1 A1A0 A0B0"/>
    </vehicle>
    <vehicle id="veh3" depart="17.00" departLane="best" departPos="base" departSpeed="max">
        <route edges="A0B0 B0C0 C0C1 C1C2"/>
    </vehicle>
    <vehicle id="veh4" depart="19.00" departLane="best" departPos="base" departSpeed="max">
        <route edges="C2C1 C1C2 C2B2"/>
    </vehicle>
    <vehicle id="veh5" depart="20.00" departLane="best" departPos="base" departSpeed="max">
        <route edges="B1A1 A1A2"/>
    </vehicle>
    <vehicle id="veh6" depart="23.00" departLane="best" departPos="base" departSpeed="max">
        <route edges="B2C2 C2C1 C1B1 B1A1 A1A0 A0B0"/>
    </vehicle>
    <vehicle id="veh7" depart="24.00" departLane="best" departPos="base" departSpeed="max">
        <route edges="C1B1 B1B0 B0C0"/>
    </vehicle>
    <vehicle id="veh8" depart="29.00" departLane="best" departPos="base" departSpeed="max">
        <route edges="C0B0 B0B1 B1B2 B2C2 C2C1"/>
    </vehicle>
    <vehicle id="veh9" depart="36.00" departLane="best" departPos="base" departSpeed="max">
        <route edges="A2A1 A1A0 A0B0 B0B1"/>
    </vehicle>
    <vehicle id="veh10" depart="40.00" departLane="best" departPos="base" departSpeed="max">
        <route edges="C1B1 B1A1"/>
    </vehicle>
    <vehicle id="veh11" depart="42.00" departLane="best" departPos="base" departSpeed="max">
        <route edges="B1A1 A1A0 A0B0 B0C0"/>
    </vehicle>
    <vehicle id="veh12" depart="44.00" departLane="best" departPos="base" departSpeed="max">
        <route edges="B1C1 C1B1 B1A1 A1B1"/>
    </vehicle>
    <vehicle id="veh13" depart="46.00" departLane="best" departPos="base" departSpeed="max">
        <route edges="A2B2 B2B1 B1B0 B0B1"/>
    </vehicle>
    <vehicle id="veh14" depart="48.00" departLane="best" departPos="base" departSpeed="max">
        <route edges="B1B0 B0B1 B1B2 B2A2 A2A1"/>
    </vehicle>
    <vehicle id="veh15" depart="54.00" departLane="best" departPos="base" departSpeed="max">
        <route edges="C2B2 B2B1 B1B0 B0B1"/>
    </vehicle>
    <vehicle id="veh16" depart="55.00" departLane="best" departPos="base" departSpeed="max">
        <route edges="C0B0 B0B1 B1C1 C1C2"/>
    </vehicle>
    <vehicle id="veh17" depart="56.00" departLane="best" departPos="base" departSpeed="max">
        <route edges="A2B2 B2B1 B1B0 B0C0 C0C1"/>
    </vehicle>
    <vehicle id="veh18" depart="58.00" departLane="best" departPos="base" departSpeed="max">
        <route edges="A0A1"/>
    </vehicle>
    <vehicle id="veh19" depart="63.00" departLane="best" departPos="base" departSpeed="max">
        <route edges="B0A0 A0A1 A1B1 B1B0 B0C0 C0C1"/>
    </vehicle>
    <vehicle id="veh20" depart="66.00" departLane="best" departPos="base" departSpeed="max">
        <route edges="B1B2 B2B1 B1B0"/>
    </vehicle>
    <vehicle id="veh21" depart="71.00" departLane="best" departPos="base" departSpeed="max">
        <route edges="A2B2 B2C2 C2C1 C1C0"/>
    </vehicle>
    <vehicle id="veh22" depart="77.00" departLane="best" departPos="base" departSpeed="max">
        <route edges="A2B2"/>
    </vehicle>
    <vehicle id="veh23" depart="80.00" departLane="best" departPos="base" departSpeed="max">
        <route edges="C1C2 C2B2 B2B1 B1A1"/>
    </vehicle>
    <vehicle id="veh24" depart="81.00" departLane="best" departPos="base" departSpeed="max">
        <route edges="B1A1 A1A2 A2B2 B2C2 C2C1"/>
    </vehicle>
    <vehicle id="veh25" depart="96.00" departLane="best" departPos="base" departSpeed="max">
        <route edges="C0B0 B0B1 B1C1 C1C2"/>
    </vehicle>
    <vehicle id="veh26" depart="103.00" departLane="best" departPos="base" departSpeed="max">
        <route edges="B0B1 B1B0 B0A0"/>
    </vehicle>
    <vehicle id="veh27" depart="108.00" departLane="best" departPos="base" departSpeed="max">
        <route edges="B1B2 B2C2"/>
    </vehicle>
    <vehicle id="veh28" depart="110.00" departLane="best" departPos="base" departSpeed="max">
        <route edges="B0C0 C0C1 C1B1 B1B0 B0A0"/>
    </vehicle>
    <vehicle id="veh29" depart="112.00" departLane="best" departPos="base" departSpeed="max">
        <route edges="A1A0 A0B0 B0A0"/>
    </vehicle>
    <vehicle id="veh30" depart="118.00" departLane="best" departPos="base" departSpeed="max">
        <route edges="B1B0 B0B1 B1A1"/>
    </vehicle>
    <vehicle id="veh31" depart="119.00" departLane="best" departPos="base" departSpeed="max">
        <route edges="B2C2 C2C1 C1C0 C0B0 B0B1"/>
    </vehicle>
    <vehicle id="veh32" depart="120.00" departLane="best" departPos="base" departSpeed="max">
        <route edges="B0A0 A0A1 A1B1 B1C1 C1C2 C2B2"/>
    </vehicle>
    <vehicle id="veh33" depart="121.00" departLane="best" departPos="base" departSpeed="max">
        <route edges="B0B1 B1A1 A1A2 A2B2"/>
    </vehicle>
    <vehicle id="veh34" depart="122.00" departLane="best" departPos="base" departSpeed="max">
        <route edges="B1A1 A1A2 A2B2 B2A2 A2A1"/>
    </vehicle>
    <vehicle id="veh35" depart="126.00" departLane="best" departPos="base" departSpeed="max">
        <route edges="B1B0 B0B1 B1B2 B2A2"/>
    </vehicle>
    <vehicle id="veh36" depart="128.00" departLane="best" departPos="base" departSpeed="max">
        <route edges="B1B0 B0B1 B1C1 C1C0"/>
    </vehicle>
    <vehicle id="veh37" depart="130.00" departLane="best" departPos="base" departSpeed="max">
        <route edges="B1B2 B2B1 B1B0 B0C0 C0C1"/>
    </vehicle>
    <vehicle id="veh38" depart="143.00" departLane="best" departPos="base" departSpeed="max">
        <route edges="A2A1 A1B1 B1C1"/>
    </vehicle>
    <vehicle id="veh39" depart="145.00" departLane="best" departPos="base" departSpeed="max">
        <route edges="C1B1 B1A1 A1A2 A2B2"/>
    </vehicle>
    <vehicle id="veh40" depart="152.00" departLane="best" departPos="base" departSpeed="max">
        <route edges="B2B1 B1C1 C1C0"/>
    </vehicle>
    <vehicle id="veh41" depart="163.00" departLane="best" departPos="base" departSpeed="max">
        <route edges="A1B1 B1A1 A1A2 A2B2"/>
    </vehicle>
    <vehicle id="veh42" depart="166.00" departLane="best" departPos="base" departSpeed="max">
        <route edges="C1C0"/>
    </vehicle>
    <vehicle id="veh43" depart="171.00" departLane="best" departPos="base" departSpeed="max">
        <route edges="C1C0 C0B0 B0B1 B1C1 C1B1"/>
    </vehicle>
    <vehicle id="veh44" depart="172.00" departLane="best" departPos="base" departSpeed="max">
        <route edges="C1C2 C2B2 B2B1 B1B0 B0A0 A0A1"/>
    </vehicle>
    <vehicle id="veh45" depart="174.00" departLane="best" departPos="base" departSpeed="max">
        <route edges="A1B1 B1A1 A1A2"/>
    </vehicle>
    <vehicle id="veh46" depart="177.00" departLane="best" departPos="base" departSpeed="max">
        <route edges="A1B1 B1B0 B0A0"/>
    </vehicle>
    <vehicle id="veh47" depart="180.00" departLane="best" departPos="base" departSpeed="max">
        <route edges="B2C2 C2C1 C1B1 B1B2"/>
    </vehicle>
    <vehicle id="veh48" depart="205.00" departLane="best" departPos="base" departSpeed="max">
        <route edges="A0B0 B0B1 B1A1 A1A0"/>
    </vehicle>
    <vehicle id="veh49" depart="206.00" departLane="best" departPos="base" departSpeed="max">
        <route edges="A0B0 B0A0 A0A1"/>
    </vehicle>
    <vehicle id="veh50" depart="207.00" departLane="best" departPos="base" departSpeed="max">
        <route edges="A1A0 A0B0 B0B1 B1B2 B2C2"/>
    </vehicle>
    <vehicle id="veh51" depart="213.00" departLane="best" departPos="base" departSpeed="max">
        <route edges="A2A1 A1B1 B1C1 C1C2 C2B2"/>
    </vehicle>
    <vehicle id="veh52" depart="215.00" departLane="best" departPos="base" departSpeed="max">
        <route edges="C0C1 C1B1 B1A1"/>
    </vehicle>
    <vehicle id="veh53" depart="218.00" departLane="best" departPos="base" departSpeed="max">
        <route edges="A1A0 A0B0 B0B1 B1B2 B2A2"/>
    </vehicle>
    <vehicle id="veh54" depart="228.00" departLane="best" departPos="base" departSpeed="max">
        <route edges="A2A1 A1B1 B1B0"/>
    </vehicle>
    <vehicle id="veh55" depart="237.00" departLane="best" departPos="base" departSpeed="max">
        <route edges="B2A2 A2A1 A1B1 B1B2"/>
    </vehicle>
    <vehicle id="veh56" depart="239.00" departLane="best" departPos="base" departSpeed="max">
        <route edges="B0C0 C0C1 C1C2 C2B2 B2A2"/>
    </vehicle>
    <vehicle id="veh57" depart="240.00" departLane="best" departPos="base" departSpeed="max">
        <route edges="B1B2 B2C2 C2C1 C1C2 C2B2"/>
    </vehicle>
    <vehicle id="veh58" depart="244.00" departLane="best" departPos="base" departSpeed="max">
        <route edges="C0B0 B0B1 B1B2 B2B1"/>
    </vehicle>
    <vehicle id="veh59" depart="245.00" departLane="best" departPos="base" departSpeed="max">
        <route edges="B1C1 C1C2 C2B2 B2A2"/>
    </vehicle>
    <vehicle id="veh60" depart="254.00" departLane="best" departPos="base" departSpeed="max">
        <route edges="B0C0 C0C1 C1B1 B1A1 A1B1"/>
    </vehicle>
    <vehicle id="veh61" depart="265.00" departLane="best" departPos="base" departSpeed="max">
        <route edges="B2C2 C2C1 C1B1 B1A1 A1A0"/>
    </vehicle>
    <vehicle id="veh62" depart="270.00" departLane="best" departPos="base" departSpeed="max">
        <route edges="B1A1 A1A2 A2B2"/>
    </vehicle>
    <vehicle id="veh63" depart="272.00" departLane="best" departPos="base" departSpeed="max">
        <route edges="A1B1 B1B2 B2B1"/>
    </vehicle>
    <vehicle id="veh64" depart="284.00" departLane="best" departPos="base" departSpeed="max">
        <route edges="B1B2 B2C2 C2C1 C1C0 C0B0"/>
    </vehicle>
    <vehicle id="veh65" depart="291.00" departLane="best" departPos="base" departSpeed="max">
        <route edges="C1C2 C2B2 B2B1 B1B0 B0C0 C0C1"/>
    </vehicle>
    <vehicle id="veh66" depart="295.00" departLane="best" departPos="base" departSpeed="max">
        <route edges="C1C0 C0B0 B0B1 B1A1"/>
    </vehicle>
    <vehicle id="veh67" depart="299.00" departLane="best" departPos="base" departSpeed="max">
        <route edges="A0B0 B0B1 B1A1 A1A0"/>
    </vehicle>
    <vehicle id="veh68" depart="301.00" departLane="best" departPos="base" departSpeed="max">
        <route edges="A1A0 A0B0 B0C0 C0C1 C1B1"/>
    </vehicle>
    <vehicle id="veh69" depart="306.00" departLane="best" departPos="base" departSpeed="max">
        <route edges="A2A1 A1B1 B1C1 C1C0"/>
    </vehicle>
    <vehicle id="veh70" depart="311.00" departLane="best" departPos="base" departSpeed="max">
        <route edges="C1C2 C2B2 B2B1 B1B0 B0C0 C0C1"/>
    </vehicle>
    <vehicle id="veh71" depart="317.00" departLane="best" departPos="base" departSpeed="max">
        <route edges="B2A2 A2A1 A1B1"/>
    </vehicle>
    <vehicle id="veh72" depart="322.00" departLane="best" departPos="base" departSpeed="max">
        <route edges="B1B0 B0B1"/>
    </vehicle>
    <vehicle id="veh73" depart="324.00" departLane="best" departPos="base" departSpeed="max">
        <route edges="C2B2 B2B1 B1B2"/>
    </vehicle>
    <vehicle id="veh74" depart="333.00" departLane="best" departPos="base" departSpeed="max">
        <route edges="C1B1 B1B2"/>
    </vehicle>
    <vehicle id="veh75" depart="336.00" departLane="best" departPos="base" departSpeed="max">
        <route edges="B0C0 C0C1 C1B1"/>
    </vehicle>
    <vehicle id="veh76" depart="345.00" departLane="best" departPos="base" departSpeed="max">
        <route edges="A1A0 A0B0"/>
    </vehicle>
    <vehicle id="veh77" depart="347.00" departLane="best" departPos="base" departSpeed="max">
        <route edges="B2A2 A2A1 A1A2"/>
    </vehicle>
    <vehicle id="veh78" depart="350.00" departLane="best" departPos="base" departSpeed="max">
        <route edges="C1B1 B1C1 C1C0"/>
    </vehicle>
    <vehicle id="veh79" depart="352.00" departLane="best" departPos="base" departSpeed="max">
        <route edges="B0C0 C0C1 C1C2 C2B2 B2B1"/>
    </vehicle>
    <vehicle id="veh80" depart="362.00" departLane="best" departPos="base" departSpeed="max">
        <route edges="A0A1 A1B1 B1B2 B2A2"/>
    </vehicle>
    <vehicle id="veh81" depart="364.00" departLane="best" departPos="base" departSpeed="max">
        <route edges="B1B0 B0C0"/>
    </vehicle>
    <vehicle id="veh82" depart="375.00" departLane="best" departPos="base" departSpeed="max">
        <route edges="B0A0 A0A1 A1B1 B1C1 C1C2 C2B2"/>
    </vehicle>
    <vehicle id="veh83" depart="378.00" departLane="best" departPos="base" departSpeed="max">
        <route edges="A1A0 A0B0 B0B1 B1B2 B2C2 C2C1"/>
    </vehicle>
    <vehicle id="veh84" depart="379.00" departLane="best" departPos="base" departSpeed="max">
        <route edges="A1B1 B1A1"/>
    </vehicle>
    <vehicle id="veh85" depart="387.00" departLane="best" departPos="base" departSpeed="max">
        <route edges="C2C1 C1C2"/>
    </vehicle>
    <vehicle id="veh86" depart="390.00" departLane="best" departPos="base" departSpeed="max">
        <route edges="A2A1 A1A0 A0B0"/>
    </vehicle>
    <vehicle id="veh87" depart="391.00" departLane="best" departPos="base" departSpeed="max">
        <route edges="B1B0 B0C0 C0C1 C1C2"/>
    </vehicle>
    <vehicle id="veh88" depart="402.00" departLane="best" departPos="base" departSpeed="max">
        <route edges="B1B0 B0B1 B1A1"/>
    </vehicle>
    <vehicle id="veh89" depart="403.00" departLane="best" departPos="base" departSpeed="max">
        <route edges="A1B1 B1B0 B0C0"/>
    </vehicle>
    <vehicle id="veh90" depart="404.00" departLane="best" departPos="base" departSpeed="max">
        <route edges="B2A2 A2A1 A1B1 B1B0 B0A0"/>
    </vehicle>
    <vehicle id="veh91" depart="410.00" departLane="best" departPos="base" departSpeed="max">
        <route edges="C2C1 C1C2"/>
    </vehicle>
    <vehicle id="veh92" depart="413.00" departLane="best" departPos="base" departSpeed="max">
        <route edges="B1B2 B2A2 A2A1 A1B1"/>
    </vehicle>
    <vehicle id="veh93" depart="416.00" departLane="best" departPos="base" departSpeed="max">
        <route edges="A2A1 A1B1 B1C1 C1C0 C0B0"/>
    </vehicle>
    <vehicle id="veh94" depart="419.00" departLane="best" departPos="base" departSpeed="max">
        <route edges="A1A0 A0B0 B0C0 C0C1 C1C2 C2B2"/>
    </vehicle>
    <vehicle id="veh95" depart="423.00" departLane="best" departPos="base" departSpeed="max">
        <route edges="C2C1 C1B1 B1B0"/>
    </vehicle>
    <vehicle id="veh96" depart="425.00" departLane="best" departPos="base" departSpeed="max">
        <route edges="A2B2 B2B1 B1C1"/>
    </vehicle>
    <vehicle id="veh97" depart="426.00" departLane="best" departPos="base" departSpeed="max">
        <route edges="C1C0 C0B0 B0A0 A0A1 A1A2 A2B2"/>
    </vehicle>
    <vehicle id="veh98" depart="427.00" departLane="best" departPos="base" departSpeed="max">
        <route edges="A1A2 A2B2"/>
    </vehicle>
    <vehicle id="veh99" depart="432.00" departLane="best" departPos="base" departSpeed="max">
        <route edges="C1B1 B1A1 A1A2"/>
    </vehicle>
    <vehicle id="veh100" depart="433.00" departLane="best" departPos="base" departSpeed="max">
        <route edges="B1A1 A1B1 B1C1 C1C0"/>
    </vehicle>
    <vehicle id="veh101" depart="434.00" departLane="best" departPos="base" departSpeed="max">
        <route edges="A0B0 B0C0 C0C1 C1C2"/>
    </vehicle>
    <vehicle id="veh102" depart="435.00" departLane="best" departPos="base" departSpeed="max">
        <route edges="C0B0 B0A0 A0A1 A1A2"/>
    </vehicle>
    <vehicle id="veh103" depart="437.00" departLane="best" departPos="base" departSpeed="max">
        <route edges="B1A1 A1B1 B1C1 C1C2 C2B2"/>
    </vehicle>
    <vehicle id="veh104" depart="440.00" departLane="best" departPos="base" departSpeed="max">
        <route edges="A1B1 B1B0 B0A0"/>
    </vehicle>
    <vehicle id="veh105" depart="443.00" departLane="best" departPos="base" departSpeed="max">
        <route edges="B0B1 B1B2 B2C2 C2C1"/>
    </vehicle>
    <vehicle id="veh106" depart="444.00" departLane="best" departPos="base" departSpeed="max">
        <route edges="A0B0 B0B1 B1A1 A1A2 A2B2"/>
    </vehicle>
    <vehicle id="veh107" depart="448.00" departLane="best" departPos="base" departSpeed="max">
        <route edges="B2B1 B1A1 A1B1"/>
    </vehicle>
    <vehicle id="veh108" depart="458.00" departLane="best" departPos="base" departSpeed="max">
        <route edges="A2B2 B2C2"/>
    </vehicle>
    <vehicle id="veh109" depart="463.00" departLane="best" departPos="base" departSpeed="max">
        <route edges="A1A0 A0B0 B0A0 A0A1"/>
    </vehicle>
    <vehicle id="veh110" depart="464.00" departLane="best" departPos="base" departSpeed="max">
        <route edges="C2B2 B2C2"/>
    </vehicle>
    <vehicle id="veh111" depart="471.00" departLane="best" departPos="base" departSpeed="max">
        <route edges="C1C2 C2B2 B2B1 B1A1 A1A2"/>
    </vehicle>
    <vehicle id="veh112" depart="479.00" departLane="best" departPos="base" departSpeed="max">
        <route edges="C1C0 C0B0 B0A0"/>
    </vehicle>
    <vehicle id="veh113" depart="483.00" departLane="best" departPos="base" departSpeed="max">
        <route edges="A1A2 A2B2 B2B1 B1A1 A1A0 A0B0"/>
    </vehicle>
    <vehicle id="veh114" depart="484.00" departLane="best" departPos="base" departSpeed="max">
        <route edges="B2A2 A2A1 A1B1 B1B2 B2C2 C2C1"/>
    </vehicle>
    <vehicle id="veh115" depart="485.00" departLane="best" departPos="base" departSpeed="max">
        <route edges="B1B0 B0B1"/>
    </vehicle>
    <vehicle id="veh116" depart="488.00" departLane="best" departPos="base" departSpeed="max">
        <route edges="B1A1 A1A2 A2B2"/>
    </vehicle>
    <vehicle id="veh117" depart="489.00" departLane="best" departPos="base" departSpeed="max">
        <route edges="A1A2 A2B2 B2B1 B1C1 C1C2 C2B2"/>
    </vehicle>
    <vehicle id="veh118" depart="494.00" departLane="best" departPos="base" departSpeed="max">
        <route edges="A1A0 A0B0 B0B1 B1B2 B2C2 C2C1"/>
    </vehicle>
    <vehicle id="veh119" depart="497.00" departLane="best" departPos="base" departSpeed="max">
        <route edges="C1B1 B1B2"/>
    </vehicle>
    <vehicle id="veh120" depart="498.00" departLane="best" departPos="base" departSpeed="max">
        <route edges="A2A1 A1B1 B1B2 B2C2 C2C1"/>
    </vehicle>
    <vehicle id="veh121" depart="500.00" departLane="best" departPos="base" departSpeed="max">
        <route edges="A0B0 B0C0 C0C1"/>
    </vehicle>
    <vehicle id="veh122" depart="503.00" departLane="best" departPos="base" departSpeed="max">
        <route edges="A1B1 B1B0"/>
    </vehicle>
    <vehicle id="veh123" depart="505.00" departLane="best" departPos="base" departSpeed="max">
        <route edges="A1A2 A2B2 B2B1 B1A1"/>
    </vehicle>
    <vehicle id="veh124" depart="506.00" departLane="best" departPos="base" departSpeed="max">
        <route edges="A0B0 B0B1 B1B0"/>
    </vehicle>
    <vehicle id="veh125" depart="507.00" departLane="best" departPos="base" departSpeed="max">
        <route edges="C0B0 B0C0 C0C1"/>
    </vehicle>
    <vehicle id="veh126" depart="510.00" departLane="best" departPos="base" departSpeed="max">
        <route edges="B1A1 A1A0 A0B0 B0C0"/>
    </vehicle>
    <vehicle id="veh127" depart="511.00" departLane="best" departPos="base" departSpeed="max">
        <route edges="C1C0 C0B0 B0A0 A0A1"/>
    </vehicle>
    <vehicle id="veh128" depart="515.00" departLane="best" departPos="base" departSpeed="max">
        <route edges="C1C2 C2B2 B2C2 C2C1"/>
    </vehicle>
    <vehicle id="veh129" depart="530.00" departLane="best" departPos="base" departSpeed="max">
        <route edges="B1B0 B0B1 B1B2"/>
    </vehicle>
    <vehicle id="veh130" depart="532.00" departLane="best" departPos="base" departSpeed="max">
        <route edges="A1A2 A2B2 B2B1 B1A1 A1B1"/>
    </vehicle>
    <vehicle id="veh131" depart="534.00" departLane="best" departPos="base" departSpeed="max">
        <route edges="B1C1 C1C2"/>
    </vehicle>
    <vehicle id="veh132" depart="536.00" departLane="best" departPos="base" departSpeed="max">
        <route edges="B2A2 A2A1 A1A0 A0B0 B0C0"/>
    </vehicle>
    <vehicle id="veh133" depart="538.00" departLane="best" departPos="base" departSpeed="max">
        <route edges="B2C2 C2C1 C1C0 C0B0 B0B1"/>
    </vehicle>
    <vehicle id="veh134" depart="544.00" departLane="best" departPos="base" departSpeed="max">
        <route edges="C2B2 B2A2 A2A1 A1A0"/>
    </vehicle>
    <vehicle id="veh135" depart="555.00" departLane="best" departPos="base" departSpeed="max">
        <route edges="B2B1 B1B2 B2C2"/>
    </vehicle>
    <vehicle id="veh136" depart="559.00" departLane="best" departPos="base" departSpeed="max">
        <route edges="A1B1 B1C1 C1C2"/>
    </vehicle>
    <vehicle id="veh137" depart="560.00" departLane="best" departPos="base" departSpeed="max">
        <route edges="C1C2 C2B2 B2A2 A2A1 A1A0"/>
    </vehicle>
    <vehicle id="veh138" depart="563.00" departLane="best" departPos="base" departSpeed="max">
        <route edges="B1A1 A1B1 B1C1 C1B1"/>
    </vehicle>
    <vehicle id="veh139" depart="565.00" departLane="best" departPos="base" departSpeed="max">
        <route edges="A0B0 B0C0 C0C1 C1C2 C2B2"/>
    </vehicle>
    <vehicle id="veh140" depart="566.00" departLane="best" departPos="base" departSpeed="max">
        <route edges="B2C2 C2C1 C1B1 B1B2 B2B1"/>
    </vehicle>
    <vehicle id="veh141" depart="570.00" departLane="best" departPos="base" departSpeed="max">
        <route edges="A2A1 A1B1 B1C1 C1C2 C2B2"/>
    </vehicle>
    <vehicle id="veh142" depart="571.00" departLane="best" departPos="base" departSpeed="max">
        <route edges="B1B0 B0B1 B1A1"/>
    </vehicle>
    <vehicle id="veh143" depart="577.00" departLane="best" departPos="base" departSpeed="max">
        <route edges="B1C1 C1B1 B1A1"/>
    </vehicle>
    <vehicle id="veh144" depart="580.00" departLane="best" departPos="base" departSpeed="max">
        <route edges="B0C0 C0C1 C1B1"/>
    </vehicle>
    <vehicle id="veh145" depart="583.00" departLane="best" departPos="base" departSpeed="max">
        <route edges="A2A1 A1A2 A2B2"/>
    </vehicle>
    <vehicle id="veh146" depart="585.00" departLane="best" departPos="base" departSpeed="max">
        <route edges="C2B2 B2B1 B1B0 B0A0"/>
    </vehicle>
    <vehicle id="veh147" depart="586.00" departLane="best" departPos="base" departSpeed="max">
        <route edges="A2A1 A1B1 B1B2"/>
    </vehicle>
    <vehicle id="veh148" depart="589.00" departLane="best" departPos="base" departSpeed="max">
        <route edges="C2C1 C1C0"/>
    </vehicle>
    <vehicle id="veh149" depart="593.00" departLane="best" departPos="base" departSpeed="max">
        <route edges="A0A1 A1A2 A2B2 B2C2 C2C1"/>
    </vehicle>
    <vehicle id="veh150" depart="599.00" departLane="best" departPos="base" departSpeed="max">
        <route edges="C0C1 C1B1 B1A1 A1B1"/>
    </vehicle>
    <vehicle id="veh151" depart="604.00" departLane="best" departPos="base" departSpeed="max">
        <route edges="C1B1 B1B0 B0B1"/>
    </vehicle>
    <vehicle id="veh152" depart="608.00" departLane="best" departPos="base" departSpeed="max">
        <route edges="B1A1 A1B1 B1B0 B0A0"/>
    </vehicle>
    <vehicle id="veh153" depart="616.00" departLane="best" departPos="base" departSpeed="max">
        <route edges="B0A0 A0A1 A1A2"/>
    </vehicle>
    <vehicle id="veh154" depart="622.00" departLane="best" departPos="base" departSpeed="max">
        <route edges="B2C2 C2C1 C1B1 B1B2 B2A2 A2A1"/>
    </vehicle>
    <vehicle id="veh155" depart="627.00" departLane="best" departPos="base" departSpeed="max">
        <route edges="C1C0 C0B0 B0B1 B1A1 A1A0"/>
    </vehicle>
    <vehicle id="veh156" depart="638.00" departLane="best" departPos="base" departSpeed="max">
        <route edges="B2C2 C2C1 C1C0"/>
    </vehicle>
    <vehicle id="veh157" depart="645.00" departLane="best" departPos="base" departSpeed="max">
        <route edges="A1A2 A2B2 B2B1 B1C1 C1C2"/>
    </vehicle>
    <vehicle id="veh158" depart="647.00" departLane="best" departPos="base" departSpeed="max">
        <route edges="C0B0 B0A0 A0A1 A1B1"/>
    </vehicle>
    <vehicle id="veh159" depart="649.00" departLane="best" departPos="base" departSpeed="max">
        <route edges="B1C1 C1C0 C0B0 B0C0 C0C1"/>
    </vehicle>
    <vehicle id="veh160" depart="652.00" departLane="best" departPos="base" departSpeed="max">
        <route edges="B1A1 A1A0 A0B0 B0C0 C0C1"/>
    </vehicle>
    <vehicle id="veh161" depart="673.00" departLane="best" departPos="base" departSpeed="max">
        <route edges="B2B1 B1A1"/>
    </vehicle>
    <vehicle id="veh162" depart="676.00" departLane="best" departPos="base" departSpeed="max">
        <route edges="B2B1 B1B0 B0C0 C0C1"/>
    </vehicle>
    <vehicle id="veh163" depart="678.00" departLane="best" departPos="base" departSpeed="max">
        <route edges="C2C1 C1B1 B1B2 B2A2"/>
    </vehicle>
    <vehicle id="veh164" depart="680.00" departLane="best" departPos="base" departSpeed="max">
        <route edges="B1C1 C1C2 C2B2 B2A2 A2A1"/>
    </vehicle>
    <vehicle id="veh165" depart="685.00" departLane="best" departPos="base" departSpeed="max">
        <route edges="A2A1 A1B1 B1C1"/>
    </vehicle>
    <vehicle id="veh166" depart="690.00" departLane="best" departPos="base" departSpeed="max">
        <route edges="C1C0 C0B0 B0C0"/>
    </vehicle>
    <vehicle id="veh167" depart="694.00" departLane="best" departPos="base" departSpeed="max">
        <route edges="A1A0 A0B0 B0B1 B1B2 B2A2"/>
    </vehicle>
    <vehicle id="veh168" depart="697.00" departLane="best" departPos="base" departSpeed="max">
        <route edges="C1C0 C0B0 B0B1 B1A1"/>
    </vehicle>
    <vehicle id="veh169" depart="700.00" departLane="best" departPos="base" departSpeed="max">
        <route edges="B1B0 B0B1 B1A1"/>
    </vehicle>
    <vehicle id="veh170" depart="702.00" departLane="best" departPos="base" departSpeed="max">
        <route edges="A2A1"/>
    </vehicle>
    <vehicle id="veh171" depart="713.00" departLane="best" departPos="base" departSpeed="max">
        <route edges="C0C1 C1C2"/>
    </vehicle>
    <vehicle id="veh172" depart="716.00" departLane="best" departPos="base" departSpeed="max">
        <route edges="C1C2 C2B2 B2A2 A2A1 A1B1"/>
    </vehicle>
    <vehicle id="veh173" depart="717.00" departLane="best" departPos="base" departSpeed="max">
        <route edges="A1A0 A0B0 B0B1 B1B2"/>
    </vehicle>
    <vehicle id="veh174" depart="721.00" departLane="best" departPos="base" departSpeed="max">
        <route edges="C2B2 B2B1 B1C1 C1C0"/>
    </vehicle>
    <vehicle id="veh175" depart="727.00" departLane="best" departPos="base" departSpeed="max">
        <route edges="C2C1 C1C0 C0B0 B0A0 A0A1"/>
    </vehicle>
    <vehicle id="veh176" depart="735.00" departLane="best" departPos="base" departSpeed="max">
        <route edges="B0B1 B1B2 B2B1"/>
    </vehicle>
    <vehicle id="veh177" depart="737.00" departLane="best" departPos="base" departSpeed="max">
        <route edges="B1B0 B0C0 C0C1 C1C2 C2B2"/>
    </vehicle>
    <vehicle id="veh178" depart="757.00" departLane="best" departPos="base" departSpeed="max">
        <route edges="B1C1 C1B1 B1A1 A1A0 A0B0"/>
    </vehicle>
    <vehicle id="veh179" depart="759.00" departLane="best" departPos="base" departSpeed="max">
        <route edges="B2A2 A2A1 A1A2"/>
    </vehicle>
    <vehicle id="veh180" depart="763.00" departLane="best" departPos="base" departSpeed="max">
        <route edges="C2C1 C1C0 C0B0 B0A0 A0A1"/>
    </vehicle>
    <vehicle id="veh181" depart="769.00" departLane="best" departPos="base" departSpeed="max">
        <route edges="B1B2 B2B1 B1A1 A1A2 A2B2"/>
    </vehicle>
    <vehicle id="veh182" depart="777.00" departLane="best" departPos="base" departSpeed="max">
        <route edges="C1C2 C2B2 B2B1 B1B0 B0C0"/>
    </vehicle>
    <vehicle id="veh183" depart="787.00" departLane="best" departPos="base" departSpeed="max">
        <route edges="B1C1 C1B1 B1B2 B2C2"/>
    </vehicle>
    <vehicle id="veh184" depart="797.00" departLane="best" departPos="base" departSpeed="max">
        <route edges="C1C0 C0B0 B0A0 A0A1 A1A2 A2B2"/>
    </vehicle>
    <vehicle id="veh185" depart="803.00" departLane="best" departPos="base" departSpeed="max">
        <route edges="B0B1 B1C1 C1C0"/>
    </vehicle>