<?xml version="1.0" encoding="UTF-8"?>

<!-- generated on 2025-11-21 23:04:12.983228 by Eclipse SUMO randomTrips.py v1_25_0+0000-ac6c5a6752d
<configuration>
    <net-file value="data\scenarios\high\network.net.xml"/>
    <route-file value="data\scenarios\high\routes.rou.xml"/>
    <prefix value="veh"/>
    <trip-attributes value="departLane=&quot;best&quot; departSpeed=&quot;max&quot; departPos=&quot;base&quot;"/>
    <seed value="13"/>
    <period value="2.0"/>
    <binomial value="1"/>
</configuration>
-->

<routes xmlns:xsi="http://www.w3.org/2001/XMLSchema-instance" xsi:noNamespaceSchemaLocation="http://sumo.dlr.de/xsd/routes_file.xsd">
    <trip id="veh0" depart="0.00" from="B2C2" to="B2C2" departLane="best" departSpeed="max" departPos="base"/>
    <trip id="veh1" depart="2.00" from="A2A1" to="A1A2" departLane="best" departSpeed="max" departPos="base"/>
    <trip id="veh2" depart="3.00" from="C0B0" to="A1A2" departLane="best" departSpeed="max" departPos="base"/>
    <trip id="veh3" depart="5.00" from="B0A0" to="B1A1" departLane="best" departSpeed="max" departPos="base"/>
    <trip id="veh4" depart="8.00" from="A2B2" to="A1A2" departLane="best" departSpeed="max" departPos="base"/>
    <trip id="veh5" depart="16.00" from="C1C0" to="B1B0" departLane="best" departSpeed="max" departPos="base"/>
    <trip id="veh6" depart="19.00" from="B0B1" to="B1A1" departLane="best" departSpeed="max" departPos="base"/>
    <trip id="veh7" depart="20.00" from="A1A0" to="C1B1" departLane="best" departSpeed="max" departPos="base"/>
    <trip id="veh8" depart="26.00" from="B2C2" to="B1A1" departLane="best" departSpeed="max" departPos="base"/>
    <trip id="veh9" depart="27.00" from="A1B1" to="B1B2" departLane="best" departSpeed="max" departPos="base"/>
    <trip id="veh10" depart="28.00" from="B1B0" to="B2A2" departLane="best" departSpeed="max" departPos="base"/>
    <trip id="veh11" depart="29.00" from="A1A2" to="B1B0" departLane="best" departSpeed="max" departPos="base"/>
    <trip id="veh12" depart="30.00" from="A2A1" to="A1B1" departLane="best" departSpeed="max" departPos="base"/>
    <trip id="veh13" depart="31.00" from="A0B0" to="B2B1" departLane="best" departSpeed="max" departPos="base"/>
    <trip id="veh14" depart="33.00" from="C0B0" to="C2B2" departLane="best" departSpeed="max" departPos="base"/>
    <trip id="veh15" depart="34.00" from="A1A2" to="C1B1" departLane="best" departSpeed="max" departPos="base"/>
    <trip id="veh16" depart="37.00" from="B0C0" to="C1C0" departLane="best" departSpeed="max" departPos="base"/>
    <trip id="veh17" depart="40.00" from="C1C0" to="B0B1" departLane="best" departSpeed="max" departPos="base"/>
    <trip id="veh18" depart="42.00" from="C2C1" to="B2A2" departLane="best" departSpeed="max" departPos="base"/>
    <trip id="veh19" depart="44.00" from="B2A2" to="B1C1" departLane="best" departSpeed="max" departPos="base"/>
    <trip id="veh20" depart="46.00" from="C0B0" to="B0B1" departLane="best" departSpeed="max" departPos="base"/>
    <trip id="veh21" depart="47.00" from="A1A2" to="B2C2" departLane="best" departSpeed="max" departPos="base"/>
    <trip id="veh22" depart="48.00" from="A2A1" to="A0B0" departLane="best" departSpeed="max" departPos="base"/>
    <trip id="veh23" depart="52.00" from="B1A1" to="B0B1" departLane="best" departSpeed="max" departPos="base"/>
    <trip id="veh24" depart="53.00" from="A0A1" to="C2C1" departLane="best" departSpeed="max" departPos="base"/>
    <trip id="veh25" depart="54.00" from="B0A0" to="A2B2" departLane="best" departSpeed="max" departPos="base"/>
    <trip id="veh26" depart="56.00" from="B1B0" to="B0B1" departLane="best" departSpeed="max" departPos="base"/>
    <trip id="veh27" depart="58.00" from="B0B1" to="B1B0" departLane="best" departSpeed="max" departPos="base"/>
    <trip id="veh28" depart="61.00" from="B2C2" to="B0A0" departLane="best" departSpeed="max" departPos="base"/>
    <trip id="veh29" depart="62.00" from="B1B2" to="C1C2" departLane="best" departSpeed="max" departPos="base"/>
    <trip id="veh30" depart="64.00" from="B2C2" to="C1C0" departLane="best" departSpeed="max" departPos="base"/>
    <trip id="veh31" depart="65.00" from="B2A2" to="B0B1" departLane="best" departSpeed="max" departPos="base"/>
    <trip id="veh32" depart="66.00" from="A2B2" to="A1B1" departLane="best" departSpeed="max" departPos="base"/>
    <trip id="veh33" depart="67.00" from="A0A1" to="B0C0" departLane="best" departSpeed="max" departPos="base"/>
    <trip id="veh34" depart="68.00" from="C0C1" to="B2A2" departLane="best" departSpeed="max" departPos="base"/>
    <trip id="veh35" depart="69.00" from="C0C1" to="A1B1" departLane="best" departSpeed="max" departPos="base"/>
    <trip id="veh36" depart="70.00" from="B1C1" to="B0A0" departLane="best" departSpeed="max" departPos="base"/>
    <trip id="veh37" depart="71.00" from="B1A1" to="A1A2" departLane="best" departSpeed="max" departPos="base"/>
    <trip id="veh38" depart="73.00" from="C1B1" to="A2A1" departLane="best" departSpeed="max" departPos="base"/>
    <trip id="veh39" depart="74.00" from="B0C0" to="A0A1" departLane="best" departSpeed="max" departPos="base"/>
    <trip id="veh40" depart="75.00" from="B0B1" to="B1A1" departLane="best" departSpeed="max" departPos="base"/>
    <trip id="veh41" depart="78.00" from="B1B2" to="A1A2" departLane="best" departSpeed="max" departPos="base"/>
    <trip id="veh42" depart="80.00" from="C1C2" to="B1C1" departLane="best" departSpeed="max" departPos="base"/>
    <trip id="veh43" depart="81.00" from="A0A1" to="A2A1" departLane="best" departSpeed="max" departPos="base"/>
    <trip id="veh44" depart="83.00" from="B1B0" to="B0B1" departLane="best" departSpeed="max" departPos="base"/>
    <trip id="veh45" depart="84.00" from="C1B1" to="A2A1" departLane="best" departSpeed="max" departPos="base"/>
    <trip id="veh46" depart="90.00" from="B1C1" to="B2A2" departLane="best" departSpeed="max" departPos="base"/>
    <trip id="veh47" depart="93.00" from="A1A2" to="B1B2" departLane="best" departSpeed="max" departPos="base"/>
    <trip id="veh48" depart="96.00" from="C2C1" to="B0A0" departLane="best" departSpeed="max" departPos="base"/>
    <trip id="veh49" depart="97.00" from="A0B0" to="A0A1" departLane="best" departSpeed="max" departPos="base"/>
    <trip id="veh50" depart="99.00" from="C0B0" to="C1C0" departLane="best" departSpeed="max" departPos="base"/>
    <trip id="veh51" depart="102.00" from="B2A2" to="C1B1" departLane="best" departSpeed="max" departPos="base"/>
    <trip id="veh52" depart="104.00" from="C0C1" to="A1A0" departLane="best" departSpeed="max" departPos="base"/>
    <trip id="veh53" depart="105.00" from="C2C1" to="B1B0" departLane="best" departSpeed="max" departPos="base"/>
    <trip id="veh54" depart="106.00" from="C0C1" to="B1A1" departLane="best" departSpeed="max" departPos="base"/>
    <trip id="veh55" depart="107.00" from="A0A1" to="A2B2" departLane="best" departSpeed="max" departPos="base"/>
    <trip id="veh56" depart="108.00" from="C2B2" to="A2A1" departLane="best" departSpeed="max" departPos="base"/>
    <trip id="veh57" depart="111.00" from="C2C1" to="C0C1" departLane="best" departSpeed="max" departPos="base"/>
    <trip id="veh58" depart="112.00" from="A2B2" to="B1B0" departLane="best" departSpeed="max" departPos="base"/>
    <trip id="veh59" depart="115.00" from="B0C0" to="B1B0" departLane="best" departSpeed="max" departPos="base"/>
    <trip id="veh60" depart="116.00" from="B1C1" to="A0A1" departLane="best" departSpeed="max" departPos="base"/>
    <trip id="veh61" depart="118.00" from="A1A0" to="B2A2" departLane="best" departSpeed="max" departPos="base"/>
    <trip id="veh62" depart="119.00" from="C1C2" to="B1B0" departLane="best" departSpeed="max" departPos="base"/>
    <trip id="veh63" depart="122.00" from="C0B0" to="B2B1" departLane="best" departSpeed="max" departPos="base"/>
    <trip id="veh64" depart="123.00" from="C2C1" to="A0A1" departLane="best" departSpeed="max" departPos="base"/>
    <trip id="veh65" depart="125.00" from="C1C0" to="A1A2" departLane="best" departSpeed="max" departPos="base"/>
    <trip id="veh66" depart="126.00" from="B1B2" to="C2B2" departLane="best" departSpeed="max" departPos="base"/>
    <trip id="veh67" depart="127.00" from="B1B0" to="B2A2" departLane="best" departSpeed="max" departPos="base"/>
    <trip id="veh68" depart="128.00" from="B1B2" to="A0A1" departLane="best" departSpeed="max" departPos="base"/>
    <trip id="veh69" depart="129.00" from="C0C1" to="B0B1" departLane="best" departSpeed="max" departPos="base"/>
    <trip id="veh70" depart="130.00" from="A0B0" to="B2C2" departLane="best" departSpeed="max" departPos="base"/>
    <trip id="veh71" depart="131.00" from="C1C2" to="C0B0" departLane="best" departSpeed="max" departPos="base"/>
    <trip id="veh72" depart="132.00" from="C1C2" to="C2B2" departLane="best" departSpeed="max" departPos="base"/>
    <trip id="veh73" depart="139.00" from="A1A2" to="C0B0" departLane="best" departSpeed="max" departPos="base"/>
    <trip id="veh74" depart="141.00" from="B2B1" to="B2A2" departLane="best" departSpeed="max" departPos="base"/>
    <trip id="veh75" depart="145.00" from="C1B1" to="B1B0" departLane="best" departSpeed="max" departPos="base"/>
    <trip id="veh76" depart="147.00" from="C2B2" to="B1A1" departLane="best" departSpeed="max" departPos="base"/>
    <trip id="veh77" depart="149.00" from="B2C2" to="C1C2" departLane="best" departSpeed="max" departPos="base"/>
    <trip id="veh78" depart="151.00" from="A0B0" to="B1B0" departLane="best" departSpeed="max" departPos="base"/>
    <trip id="veh79" depart="152.00" from="C1B1" to="C0C1" departLane="best" departSpeed="max" departPos="base"/>
    <trip id="veh80" depart="154.00" from="B0C0" to="B1C1" departLane="best" departSpeed="max" departPos="base"/>
    <trip id="veh81" depart="156.00" from="A2A1" to="A1A2" departLane="best" departSpeed="max" departPos="base"/>
    <trip id="veh82" depart="157.00" from="B0A0" to="C2C1" departLane="best" departSpeed="max" departPos="base"/>
    <trip id="veh83" depart="158.00" from="C2B2" to="B0A0" departLane="best" departSpeed="max" departPos="base"/>
    <trip id="veh84" depart="159.00" from="C2C1" to="A1A0" departLane="best" departSpeed="max" departPos="base"/>
    <trip id="veh85" depart="160.00" from="A1A2" to="A0B0" departLane="best" departSpeed="max" departPos="base"/>
    <trip id="veh86" depart="161.00" from="A2A1" to="A1A2" departLane="best" departSpeed="max" departPos="base"/>
    <trip id="veh87" depart="162.00" from="B2C2" to="A0B0" departLane="best" departSpeed="max" departPos="base"/>
    <trip id="veh88" depart="163.00" from="B1C1" to="C1C2" departLane="best" departSpeed="max" departPos="base"/>
    <trip id="veh89" depart="169.00" from="A0B0" to="B2A2" departLane="best" departSpeed="max" departPos="base"/>
    <trip id="veh90" depart="173.00" from="B2C2" to="B1A1" departLane="best" departSpeed="max" departPos="base"/>
    <trip id="veh91" depart="174.00" from="A2A1" to="A2B2" departLane="best" departSpeed="max" departPos="base"/>
    <trip id="veh92" depart="178.00" from="C0B0" to="A1A0" departLane="best" departSpeed="max" departPos="base"/>
    <trip id="veh93" depart="180.00" from="C1C0" to="C2C1" departLane="best" departSpeed="max" departPos="base"/>
    <trip id="veh94" depart="181.00" from="C1B1" to="A2A1" departLane="best" departSpeed="max" departPos="base"/>
    <trip id="veh95" depart="182.00" from="A1A0" to="B1A1" departLane="best" departSpeed="max" departPos="base"/>
    <trip id="veh96" depart="183.00" from="B2C2" to="B1C1" departLane="best" departSpeed="max" departPos="base"/>
    <trip id="veh97" depart="184.00" from="C0B0" to="A2A1" departLane="best" departSpeed="max" departPos="base"/>
    <trip id="veh98" depart="185.00" from="B0B1" to="A0A1" departLane="best" departSpeed="max" departPos="base"/>
    <trip id="veh99" depart="187.00" from="A1A0" to="C1B1" departLane="best" departSpeed="max" departPos="base"/>
    <trip id="veh100" depart="189.00" from="B1A1" to="A1A2" departLane="best" departSpeed="max" departPos="base"/>
    <trip id="veh101" depart="190.00" from="B1B2" to="A2A1" departLane="best" departSpeed="max" departPos="base"/>
    <trip id="veh102" depart="191.00" from="C1C2" to="A0A1" departLane="best" departSpeed="max" departPos="base"/>
    <trip id="veh103" depart="192.00" from="C0C1" to="C0B0" departLane="best" departSpeed="max" departPos="base"/>
    <trip id="veh104" depart="193.00" from="C0B0" to="B1C1" departLane="best" departSpeed="max" departPos="base"/>
    <trip id="veh105" depart="199.00" from="B1C1" to="C1B1" departLane="best" departSpeed="max" departPos="base"/>
    <trip id="veh106" depart="201.00" from="A0A1" to="C0C1" departLane="best" departSpeed="max" departPos="base"/>
    <trip id="veh107" depart="202.00" from="B1A1" to="A2B2" departLane="best" departSpeed="max" departPos="base"/>
    <trip id="veh108" depart="204.00" from="C1C0" to="B2A2" departLane="best" departSpeed="max" departPos="base"/>
    <trip id="veh109" depart="207.00" from="B1B2" to="C0C1" departLane="best" departSpeed="max" departPos="base"/>
    <trip id="veh110" depart="213.00" from="A2A1" to="B1A1" departLane="best" departSpeed="max" departPos="base"/>
    <trip id="veh111" depart="214.00" from="C1C2" to="A0B0" departLane="best" departSpeed="max" departPos="base"/>
    <trip id="veh112" depart="215.00" from="C0B0" to="B1B0" departLane="best" departSpeed="max" departPos="base"/>
    <trip id="veh113" depart="217.00" from="C0C1" to="B1A1" departLane="best" departSpeed="max" departPos="base"/>
    <trip id="veh114" depart="219.00" from="B0C0" to="C1B1" departLane="best" departSpeed="max" departPos="base"/>
    <trip id="veh115" depart="222.00" from="A0A1" to="B2C2" departLane="best" departSpeed="max" departPos="base"/>
    <trip id="veh116" depart="223.00" from="C0B0" to="B2A2" departLane="best" departSpeed="max" departPos="base"/>
    <trip id="veh117" depart="224.00" from="C1C0" to="A1A2" departLane="best" departSpeed="max" departPos="base"/>
    <trip id="veh118" depart="226.00" from="C2C1" to="B2A2" departLane="best" departSpeed="max" departPos="base"/>
    <trip id="veh119" depart="227.00" from="C2B2" to="B1B2" departLane="best" departSpeed="max" departPos="base"/>
    <trip id="veh120" depart="229.00" from="C1B1" to="B2B1" departLane="best" departSpeed="max" departPos="base"/>
    <trip id="veh121" depart="230.00" from="A1A0" to="B1A1" departLane="best" departSpeed="max" departPos="base"/>
    <trip id="veh122" depart="233.00" from="A0A1" to="C1B1" departLane="best" departSpeed="max" departPos="base"/>
    <trip id="veh123" depart="234.00" from="C0B0" to="B1B0" departLane="best" departSpeed="max" departPos="base"/>
    <trip id="veh124" depart="236.00" from="C1B1" to="C0B0" departLane="best" departSpeed="max" departPos="base"/>
    <trip id="veh125" depart="237.00" from="B1C1" to="B0A0" departLane="best" departSpeed="max" departPos="base"/>
    <trip id="veh126" depart="241.00" from="B2A2" to="A2A1" departLane="best" departSpeed="max" departPos="base"/>
    <trip id="veh127" depart="242.00" from="A1A0" to="C0B0" departLane="best" departSpeed="max" departPos="base"/>
    <trip id="veh128" depart="243.00" from="B1B2" to="A1B1" departLane="best" departSpeed="max" departPos="base"/>
    <trip id="veh129" depart="245.00" from="A0A1" to="B2A2" departLane="best" departSpeed="max" departPos="base"/>
    <trip id="veh130" depart="250.00" from="B2B1" to="B2B1" departLane="best" departSpeed="max" departPos="base"/>
    <trip id="veh131" depart="251.00" from="A1A2" to="A2A1" departLane="best" departSpeed="max" departPos="base"/>
    <trip id="veh132" depart="256.00" from="C0B0" to="B1B2" departLane="best" departSpeed="max" departPos="base"/>
    <trip id="veh133" depart="257.00" from="B2A2" to="A2A1" departLane="best" departSpeed="max" departPos="base"/>
    <trip id="veh134" depart="258.00" from="B1A1" to="C0C1" departLane="best" departSpeed="max" departPos="base"/>
    <trip id="veh135" depart="259.00" from="B1A1" to="A2A1" departLane="best" departSpeed="max" departPos="base"/>
    <trip id="veh136" depart="262.00" from="C0B0" to="B1B0" departLane="best" departSpeed="max" departPos="base"/>
    <trip id="veh137" depart="263.00" from="A2B2" to="B1B2" departLane="best" departSpeed="max" departPos="base"/>
    <trip id="veh138" depart="266.00" from="C0C1" to="B1C1" departLane="best" departSpeed="max" departPos="base"/>
    <trip id="veh139" depart="267.00" from="A2A1" to="B1A1" departLane="best" departSpeed="max" departPos="base"/>
    <trip id="veh140" depart="269.00" from="A1A2" to="C1C2" departLane="best" departSpeed="max" departPos="base"/>
    <trip id="veh141" depart="270.00" from="A0B0" to="C1C2" departLane="best" departSpeed="max" departPos="base"/>
    <trip id="veh142" depart="271.00" from="B0B1" to="B2A2" departLane="best" departSpeed="max" departPos="base"/>
    <trip id="veh143" depart="274.00" from="B1C1" to="C1C2" departLane="best" departSpeed="max" departPos="base"/>
    <trip id="veh144" depart="275.00" from="C0B0" to="B1B0" departLane="best" departSpeed="max" departPos="base"/>
    <trip id="veh145" depart="278.00" from="C0B0" to="B0B1" departLane="best" departSpeed="max" departPos="base"/>
    <trip id="veh146" depart="285.00" from="B1C1" to="A0B0" departLane="best" departSpeed="max" departPos="base"/>
    <trip id="veh147" depart="288.00" from="C1B1" to="B1A1" departLane="best" departSpeed="max" departPos="base"/>
    <trip id="veh148" depart="289.00" from="A1B1" to="B1C1" departLane="best" departSpeed="max" departPos="base"/>
    <trip id="veh149" depart="290.00" from="A0B0" to="B0A0" departLane="best" departSpeed="max" departPos="base"/>
    <trip id="veh150" depart="292.00" from="B2C2" to="B1A1" departLane="best" departSpeed="max" departPos="base"/>
    <trip id="veh151" depart="293.00" from="B2A2" to="A2A1" departLane="best" departSpeed="max" departPos="base"/>
    <trip id="veh152" depart="294.00" from="B2A2" to="B2C2" departLane="best" departSpeed="max" departPos="base"/>
    <trip id="veh153" depart="295.00" from="C2B2" to="A0A1" departLane="best" departSpeed="max" departPos="base"/>
    <trip id="veh154" depart="296.00" from="B0A0" to="C1B1" departLane="best" departSpeed="max" departPos="base"/>
    <trip id="veh155" depart="299.00" from="C1C2" to="A1A2" departLane="best" departSpeed="max" departPos="base"/>
    <trip id="veh156" depart="301.00" from="A1A2" to="C0C1" departLane="best" departSpeed="max" departPos="base"/>
    <trip id="veh157" depart="304.00" from="C1C0" to="B1B2" departLane="best" departSpeed="max" departPos="base"/>
    <trip id="veh158" depart="305.00" from="A1A0" to="C2C1" departLane="best" departSpeed="max" departPos="base"/>
    <trip id="veh159" depart="306.00" from="A2A1" to="B0B1" departLane="best" departSpeed="max" departPos="base"/>
    <trip id="veh160" depart="311.00" from="C0B0" to="A1B1" departLane="best" departSpeed="max" departPos="base"/>
    <trip id="veh161" depart="314.00" from="C0B0" to="A2A1" departLane="best" departSpeed="max" departPos="base"/>
    <trip id="veh162" depart="315.00" from="C1C0" to="B1A1" departLane="best" departSpeed="max" departPos="base"/>
    <trip id="veh163" depart="316.00" from="B1C1" to="A0B0" departLane="best" departSpeed="max" departPos="base"/>
    <trip id="veh164" depart="317.00" from="B2B1" to="C1C0" departLane="best" departSpeed="max" departPos="base"/>
    <trip id="veh165" depart="318.00" from="C1C2" to="A1A0" departLane="best" departSpeed="max" departPos="base"/>
    <trip id="veh166" depart="319.00" from="B0B1" to="A1B1" departLane="best" departSpeed="max" departPos="base"/>
    <trip id="veh167" depart="320.00" from="B2B1" to="B0C0" departLane="best" departSpeed="max" departPos="base"/>
    <trip id="veh168" depart="321.00" from="B1B2" to="A1A0" departLane="best" departSpeed="max" departPos="base"/>
    <trip id="veh169" depart="324.00" from="B1A1" to="B0C0" departLane="best" departSpeed="max" departPos="base"/>
    <trip id="veh170" depart="325.00" from="B0C0" to="A1B1" departLane="best" departSpeed="max" departPos="base"/>
    <trip id="veh171" depart="326.00" from="B2C2" to="B1B0" departLane="best" departSpeed="max" departPos="base"/>
    <trip id="veh172" depart="327.00" from="A1A2" to="C1C0" departLane="best" departSpeed="max" departPos="base"/>
    <trip id="veh173" depart="328.00" from="C1B1" to="B2A2" departLane="best" departSpeed="max" departPos="base"/>
    <trip id="veh174" depart="330.00" from="B1C1" to="B0C0" departLane="best" departSpeed="max" departPos="base"/>
    <trip id="veh175" depart="333.00" from="A2A1" to="C1C2" departLane="best" departSpeed="max" departPos="base"/>
    <trip id="veh176" depart="337.00" from="C0B0" to="A1A0" departLane="best" departSpeed="max" departPos="base"/>
    <trip id="veh177" depart="339.00" from="B1B0" to="B1B2" departLane="best" departSpeed="max" departPos="base"/>
    <trip id="veh178" depart="340.00" from="B1C1" to="C1C0" departLane="best" departSpeed="max" departPos="base"/>
    <trip id="veh179" depart="341.00" from="B1A1" to="B0B1" departLane="best" departSpeed="max" departPos="base"/>
    <trip id="veh180" depart="342.00" from="A2B2" to="C1C0" departLane="best" departSpeed="max" departPos="base"/>
    <trip id="veh181" depart="344.00" from="A2B2" to="B0B1" departLane="best" departSpeed="max" departPos="base"/>
    <trip id="veh182" depart="346.00" from="A1B1" to="B0A0" departLane="best" departSpeed="max" departPos="base"/>
    <trip id="veh183" depart="347.00" from="A1A2" to="A2A1" departLane="best" departSpeed="max" departPos="base"/>
    <trip id="veh184" depart="350.00" from="B0A0" to="B2A2" departLane="best" departSpeed="max" departPos="base"/>
    <trip id="veh185" depart="351.00" from="A1A0" to="B1C1" departLane="best" departSpeed="max" departPos="base"/>
    <trip id="veh186" depart="352.00" from="B0B1" to="B0C0" departLane="best" departSpeed="max" departPos="base"/>
    <trip id="veh187" depart="353.00" from="A2B2" to="A1B1" departLane="best" departSpeed="max" departPos="base"/>
    <trip id="veh188" depart="354.00" from="A0B0" to="C1B1" departLane="best" departSpeed="max" departPos="base"/>
    <trip id="veh189" depart="355.00" from="B0C0" to="A1B1" departLane="best" departSpeed="max" departPos="base"/>
    <trip id="veh190" depart="356.00" from="C0C1" to="C2C1" departLane="best" departSpeed="max" departPos="base"/>
    <trip id="veh191" depart="358.00" from="B1B2" to="B1A1" departLane="best" departSpeed="max" departPos="base"/>
    <trip id="veh192" depart="359.00" from="B1A1" to="B2A2" departLane="best" departSpeed="max" departPos="base"/>
    <trip id="veh193" depart="360.00" from="C0C1" to="B1A1" departLane="best" departSpeed="max" departPos="base"/>
    <trip id="veh194" depart="361.00" from="C1C2" to="B1C1" departLane="best" departSpeed="max" departPos="base"/>
    <trip id="veh195" depart="362.00" from="C1C2" to="B1B0" departLane="best" departSpeed="max" departPos="base"/>
    <trip id="veh196" depart="364.00" from="C1C0" to="C0B0" departLane="best" departSpeed="max" departPos="base"/>
    <trip id="veh197" depart="365.00" from="B0B1" to="C0C1" departLane="best" departSpeed="max" departPos="base"/>
    <trip id="veh198" depart="370.00" from="B0A0" to="A2B2" departLane="best" departSpeed="max" departPos="base"/>
    <trip id="veh199" depart="371.00" from="C2B2" to="B1C1" departLane="best" departSpeed="max" departPos="base"/>
    <trip id="veh200" depart="372.00" from="A2A1" to="B1A1" departLane="best" departSpeed="max" departPos="base"/>
    <trip id="veh201" depart="376.00" from="B1A1" to="C2B2" departLane="best" departSpeed="max" departPos="base"/>
    <trip id="veh202" depart="377.00" from="B2B1" to="A0B0" departLane="best" departSpeed="max" departPos="base"/>
    <trip id="veh203" depart="378.00" from="B1B2" to="C1C2" departLane="best" departSpeed="max" departPos="base"/>
    <trip id="veh204" depart="381.00" from="C1C0" to="C1C2" departLane="best" departSpeed="max" departPos="base"/>
    <trip id="veh205" depart="382.00" from="B1A1" to="B1C1" departLane="best" departSpeed="max" departPos="base"/>
    <trip id="veh206" depart="383.00" from="A2A1" to="C0C1" departLane="best" departSpeed="max" departPos="base"/>
    <trip id="veh207" depart="384.00" from="B1C1" to="A0A1" departLane="best" departSpeed="max" departPos="base"/>
    <trip id="veh208" depart="385.00" from="C2C1" to="A0A1" departLane="best" departSpeed="max" departPos="base"/>
    <trip id="veh209" depart="386.00" from="C1C2" to="C1C2" departLane="best" departSpeed="max" departPos="base"/>
    <trip id="veh210" depart="388.00" from="B0A0" to="C0B0" departLane="best" departSpeed="max" departPos="base"/>
    <trip id="veh211" depart="390.00" from="B2C2" to="A1A0" departLane="best" departSpeed="max" departPos="base"/>
    <trip id="veh212" depart="391.00" from="C1C2" to="C1C2" departLane="best" departSpeed="max" departPos="base"/>
    <trip id="veh213" depart="392.00" from="C0C1" to="C1C2" departLane="best" departSpeed="max" departPos="base"/>
    <trip id="veh214" depart="394.00" from="A1A0" to="B2C2" departLane="best" departSpeed="max" departPos="base"/>
    <trip id="veh215" depart="395.00" from="B1B2" to="A0B0" departLane="best" departSpeed="max" departPos="base"/>
    <trip id="veh216" depart="397.00" from="B2B1" to="B2A2" departLane="best" departSpeed="max" departPos="base"/>
    <trip id="veh217" depart="398.00" from="A2A1" to="B1C1" departLane="best" departSpeed="max" departPos="base"/>
    <trip id="veh218" depart="399.00" from="A0B0" to="A1B1" departLane="best" departSpeed="max" departPos="base"/>
    <trip id="veh219" depart="400.00" from="C1C2" to="A1B1" departLane="best" departSpeed="max" departPos="base"/>
    <trip id="veh220" depart="404.00" from="A2B2" to="A1A0" departLane="best" departSpeed="max" departPos="base"/>
    <trip id="veh221" depart="409.00" from="B2B1" to="B2C2" departLane="best" departSpeed="max" departPos="base"/>
    <trip id="veh222" depart="411.00" from="C2B2" to="A0A1" departLane="best" departSpeed="max" departPos="base"/>
    <trip id="veh223" depart="413.00" from="B1B2" to="A1B1" departLane="best" departSpeed="max" departPos="base"/>
    <trip id="veh224" depart="414.00" from="B0B1" to="B1B0" departLane="best" departSpeed="max" departPos="base"/>
    <trip id="veh225" depart="415.00" from="A2A1" to="A1B1" departLane="best" departSpeed="max" departPos="base"/>
    <trip id="veh226" depart="416.00" from="C2C1" to="C1C0" departLane="best" departSpeed="max" departPos="base"/>
    <trip id="veh227" depart="417.00" from="B2B1" to="A1A2" departLane="best" departSpeed="max" departPos="base"/>
    <trip id="veh228" depart="418.00" from="C2C1" to="B0B1" departLane="best" departSpeed="max" departPos="base"/>
    <trip id="veh229" depart="419.00" from="B1C1" to="B2A2" departLane="best" departSpeed="max" departPos="base"/>
    <trip id="veh230" depart="423.00" from="A2A1" to="B1C1" departLane="best" departSpeed="max" departPos="base"/>
    <trip id="veh231" depart="426.00" from="A2B2" to="C1C0" departLane="best" departSpeed="max" departPos="base"/>
    <trip id="veh232" depart="430.00" from="A1A2" to="A0B0" departLane="best" departSpeed="max" departPos="base"/>
    <trip id="veh233" depart="436.00" from="B1A1" to="A2B2" departLane="best" departSpeed="max" departPos="base"/>
    <trip id="veh234" depart="442.00" from="A2A1" to="B1B0" departLane="best" departSpeed="max" departPos="base"/>
    <trip id="veh235" depart="444.00" from="B1A1" to="B2B1" departLane="best" departSpeed="max" departPos="base"/>
    <trip id="veh236" depart="445.00" from="B2C2" to="A0B0" departLane="best" departSpeed="max" departPos="base"/>
    <trip id="veh237" depart="446.00" from="B2B1" to="C1C0" departLane="best" departSpeed="max" departPos="base"/>
    <trip id="veh238" depart="451.00" from="B0A0" to="A1A2" departLane="best" departSpeed="max" departPos="base"/>
    <trip id="veh239" depart="456.00" from="A1B1" to="B1B2" departLane="best" departSpeed="max" departPos="base"/>
    <trip id="veh240" depart="457.00" from="B2B1" to="C1C0" departLane="best" departSpeed="max" departPos="base"/>
    <trip id="veh241" depart="458.00" from="B0B1" to="B2C2" departLane="best" departSpeed="max" departPos="base"/>
    <trip id="veh242" depart="464.00" from="C2C1" to="A1A0" departLane="best" departSpeed="max" departPos="base"/>
    <trip id="veh243" depart="466.00" from="C2C1" to="A2A1" departLane="best" departSpeed="max" departPos="base"/>
    <trip id="veh244" depart="467.00" from="C2C1" to="B1A1" departLane="best" departSpeed="max" departPos="base"/>
    <trip id="veh245" depart="468.00" from="B1A1" to="A2B2" departLane="best" departSpeed="max" departPos="base"/>
    <trip id="veh246" depart="469.00" from="B1C1" to="A2A1" departLane="best" departSpeed="max" departPos="base"/>
    <trip id="veh247" depart="470.00" from="C2C1" to="C2C1" departLane="best" departSpeed="max" departPos="base"/>
    <trip id="veh248" depart="471.00" from="B0B1" to="A1A0" departLane="best" departSpeed="max" departPos="base"/>
    <trip id="veh249" depart="473.00" from="A1A2" to="C1C2" departLane="best" departSpeed="max" departPos="base"/>
    <trip id="veh250" depart="476.00" from="A1B1" to="B1C1" departLane="best" departSpeed="max" departPos="base"/>
    <trip id="veh251" depart="478.00" from="B1B2" to="B1C1" departLane="best" departSpeed="max" departPos="base"/>
    <trip id="veh252" depart="479.00" from="B0A0" to="B1A1" departLane="best" departSpeed="max" departPos="base"/>
    <trip id="veh253" depart="480.00" from="A1A0" to="A0B0" departLane="best" departSpeed="max" departPos="base"/>
    <trip id="veh254" depart="482.00" from="B2C2" to="A1A0" departLane="best" departSpeed="max" departPos="base"/>
    <trip id="veh255" depart="484.00" from="C1B1" to="B1B2" departLane="best" departSpeed="max" departPos="base"/>