<?xml version="1.0" encoding="UTF-8"?>

<!-- generated on 2025-11-21 23:03:20.137494 by Eclipse SUMO randomTrips.py v1_25_0+0000-ac6c5a6752d
<configuration>
    <net-file value="data\scenarios\low\network.net.xml"/>
    <route-file value="data\scenarios\low\routes.rou.xml"/>
    <prefix value="veh"/>
    <trip-attributes value="departLane=&quot;best&quot; departSpeed=&quot;max&quot; departPos=&quot;base&quot;"/>
    <seed value="11"/>
    <period value="12.0"/>
    <binomial value="1"/>
</configuration>
-->

<!-- generated on 2025-11-21T23:03:20.016056+05:30 by Eclipse SUMO duarouter 1.25.0
<duarouterConfiguration xmlns:xsi="http://www.w3.org/2001/XMLSchema-instance" xsi:noNamespaceSchemaLocation="http://sumo.dlr.de/xsd/duarouterConfiguration.xsd">

    <input>
        <net-file value="data\scenarios\low\network.net.xml"/>
        <route-files value="trips.trips.xml"/>
    </input>

    <output>
        <output-file value="data\scenarios\low\routes.rou.xml"/>
        <alternatives-output value="NUL"/>
    </output>

    <time>
        <begin value="0"/>
        <end value="3600"/>
    </time>

    <report>
        <no-warnings value="true"/>
        <ignore-errors value="true"/>
        <no-step-log value="true"/>
    </report>

</duarouterConfiguration>
-->

<routes xmlns:xsi="http://www.w3.org/2001/XMLSchema-instance" xsi:noNamespaceSchemaLocation="http://sumo.dlr.de/xsd/routes_file.xsd">
    <vehicle id="veh0" depart="15.00" departLane="best" departPos="base" departSpeed="max">
        <route edges="C2C1"/>
    </vehicle>
    <vehicle id="veh1" depart="19.00" departLane="best" departPos="base" departSpeed="max">
        <route edges="B1B2 B2A2 A2A1 A1A0 A0B0"/>
    </vehicle>
    <vehicle id="veh2" depart="22.00" departLane="best" departPos="base" departSpeed="max">
        <route edges="B1B0 B0B1 B1A1"/>
    </vehicle>
    <vehicle id="veh3" depart="37.00" departLane="best" departPos="base" departSpeed="max">
        <route edges="C0C1 C1B1 B1B0 B0C0"/>
    </vehicle>
    <vehicle id="veh4" depart="42.00" departLane="best" departPos="base" departSpeed="max">
        <route edges="A2A1 A1B1 B1C1 C1C2"/>
    </vehicle>
    <vehicle id="veh5" depart="46.00" departLane="best" departPos="base" departSpeed="max">
        <route edges="B2B1 B1B0 B0C0 C0C1"/>
    </vehicle>
    <vehicle id="veh6" depart="55.00" departLane="best" departPos="base" departSpeed="max">
        <route edges="C1B1 B1A1 A1B1"/>
    </vehicle>
    <vehicle id="veh7" depart="81.00" departLane="best" departPos="base" departSpeed="max">
        <route edges="A1A0 A0B0 B0B1 B1C1"/>
    </vehicle>
    <vehicle id="veh8" depart="104.00" departLane="best" departPos="base" departSpeed="max">
        <route edges="C2C1 C1B1 B1B2 B2A2 A2A1"/>
    </vehicle>
    <vehicle id="veh9" depart="112.00" departLane="best" departPos="base" departSpeed="max">
        <route edges="A2A1 A1B1 B1C1"/>
    </vehicle>
    <vehicle id="veh10" depart="118.00" departLane="best" departPos="base" departSpeed="max">
        <route edges="A2B2 B2B1 B1A1"/>
    </vehicle>
    <vehicle id="veh11" depart="119.00" departLane="best" departPos="base" departSpeed="max">
        <route edges="A1B1 B1B0 B0B1"/>
    </vehicle>
    <vehicle id="veh12" depart="129.00" departLane="best" departPos="base" departSpeed="max">
        <route edges="A0A1 A1B1 B1C1 C1C2"/>
    </vehicle>
    <vehicle id="veh13" depart="132.00" departLane="best" departPos="base" departSpeed="max">
        <route edges="B2B1 B1B0"/>
    </vehicle>
    <vehicle id="veh14" depart="136.00" departLane="best" departPos="base" departSpeed="max">
        <route edges="B1C1 C1C0 C0B0"/>
    </vehicle>
    <vehicle id="veh15" depart="154.00" departLane="best" departPos="base" departSpeed="max">
        <route edges="B2B1 B1B2 B2C2 C2C1"/>
    </vehicle>
    <vehicle id="veh16" depart="164.00" departLane="best" departPos="base" departSpeed="max">
        <route edges="B2A2 A2A1 A1B1 B1B0"/>
    </vehicle>
    <vehicle id="veh17" depart="171.00" departLane="best" departPos="base" departSpeed="max">
        <route edges="B0A0 A0A1 A1A2 A2B2 B2C2"/>
    </vehicle>
    <vehicle id="veh18" depart="206.00" departLane="best" departPos="base" departSpeed="max">
        <route edges="A0A1 A1B1 B1C1 C1C0"/>
    </vehicle>
    <vehicle id="veh19" depart="207.00" departLane="best" departPos="base" departSpeed="max">
        <route edges="C0B0 B0B1 B1C1"/>
    </vehicle>
    <vehicle id="veh20" depart="210.00" departLane="best" departPos="base" departSpeed="max">
        <route edges="A1A2 A2B2 B2B1 B1A1"/>
    </vehicle>
    <vehicle id="veh21" depart="211.00" departLane="best" departPos="base" departSpeed="max">
        <route edges="C1B1 B1B2 B2A2 A2A1"/>
    </vehicle>
    <vehicle id="veh22" depart="213.00" departLane="best" departPos="base" departSpeed="max">
        <route edges="B2B1 B1A1"/>
    </vehicle>
    <vehicle id="veh23" depart="222.00" departLane="best" departPos="base" departSpeed="max">
        <route edges="B1B0 B0B1 B1C1 C1C0 C0B0"/>
    </vehicle>
    <vehicle id="veh24" depart="262.00" departLane="best" departPos="base" departSpeed="max">
        <route edges="B1A1 A1B1 B1C1"/>
    </vehicle>
    <vehicle id="veh25" depart="265.00" departLane="best" departPos="base" departSpeed="max">
        <route edges="C1B1 B1A1 A1A0 A0B0"/>
    </vehicle>
    <vehicle id="veh26" depart="301.00" departLane="best" departPos="base" departSpeed="max">
        <route edges="C2C1 C1B1 B1B2"/>
    </vehicle>
    <vehicle id="veh27" depart="307.00" departLane="best" departPos="base" departSpeed="max">
        <route edges="B1B2 B2B1 B1B0 B0C0"/>
    </vehicle>
    <vehicle id="veh28" depart="323.00" departLane="best" departPos="base" departSpeed="max">
        <route edges="A1B1 B1B2 B2A2 A2A1"/>
    </vehicle>
    <vehicle id="veh29" depart="368.00" departLane="best" departPos="base" departSpeed="max">
        <route edges="A1B1 B1B2 B2C2"/>
    </vehicle>
    <vehicle id="veh30" depart="377.00" departLane="best" departPos="base" departSpeed="max">
        <route edges="A1A0 A0B0 B0A0 A0A1"/>
    </vehicle>
    <vehicle id="veh31" depart="388.00" departLane="best" departPos="base" departSpeed="max">
        <route edges="C2B2 B2B1 B1B0"/>
    </vehicle>
    <vehicle id="veh32" depart="395.00" departLane="best" departPos="base" departSpeed="max">
        <route edges="B2C2 C2C1 C1C0"/>
    </vehicle>
    <vehicle id="veh33" depart="403.00" departLane="best" departPos="base" departSpeed="max">
        <route edges="C1C2 C2B2 B2C2 C2C1 C1B1"/>
    </vehicle>
    <vehicle id="veh34" depart="425.00" departLane="best" departPos="base" departSpeed="max">
        <route edges="B0B1 B1B0"/>
    </vehicle>
    <vehicle id="veh35" depart="426.00" departLane="best" departPos="base" departSpeed="max">
        <route edges="B0B1 B1B2 B2B1"/>
    </vehicle>
    <vehicle id="veh36" depart="441.00" departLane="best" departPos="base" departSpeed="max">
        <route edges="B2A2 A2A1 A1B1 B1C1 C1C0 C0B0"/>
    </vehicle>
    <vehicle id="veh37" depart="444.00" departLane="best" departPos="base" departSpeed="max">
        <route edges="A1B1 B1B0 B0C0"/>
    </vehicle>
    <vehicle id="veh38" depart="455.00" departLane="best" departPos="base" departSpeed="max">
        <route edges="B2A2 A2A1 A1A0 A0B0 B0C0 C0C1"/>
    </vehicle>
    <vehicle id="veh39" depart="456.00" departLane="best" departPos="base" departSpeed="max">
        <route edges="C2B2 B2B1 B1A1 A1A2"/>
    </vehicle>
    <vehicle id="veh40" depart="461.00" departLane="best" departPos="base" departSpeed="max">
        <route edges="C2B2 B2B1 B1A1"/>
    </vehicle>
    <vehicle id="veh41" depart="471.00" departLane="best" departPos="base" departSpeed="max">
        <route edges="A2A1 A1A0 A0B0"/>
    </vehicle>
    <vehicle id="veh42" depart="477.00" departLane="best" departPos="base" departSpeed="max">
        <route edges="C2C1 C1C2 C2B2"/>
    </vehicle>
    <vehicle id="veh43" depart="478.00" departLane="best" departPos="base" departSpeed="max">
        <route edges="C1C2 C2B2 B2B1 B1A1"/>
    </vehicle>
    <vehicle id="veh44" depart="493.00" departLane="best" departPos="base" departSpeed="max">
        <route edges="B1B2 B2A2 A2A1 A1A0"/>
    </vehicle>
    <vehicle id="veh45" depart="522.00" departLane="best" departPos="base" departSpeed="max">
        <route edges="A0B0 B0B1 B1A1 A1A2 A2B2"/>
    </vehicle>
    <vehicle id="veh46" depart="527.00" departLane="best" departPos="base" departSpeed="max">
        <route edges="A1A0 A0B0 B0B1 B1B2 B2C2"/>
    </vehicle>
    <vehicle id="veh47" depart="536.00" departLane="best" departPos="base" departSpeed="max">
        <route edges="A1A0 A0B0 B0C0 C0C1 C1B1"/>
    </vehicle>
    <vehicle id="veh48" depart="554.00" departLane="best" departPos="base" departSpeed="max">
        <route edges="A0B0 B0B1 B1C1"/>
    </vehicle>
    <vehicle id="veh49" depart="559.00" departLane="best" departPos="base" departSpeed="max">
        <route edges="A2A1 A1A2 A2B2 B2B1"/>
    </vehicle>
    <vehicle id="veh50" depart="560.00" departLane="best" departPos="base" departSpeed="max">
        <route edges="B0A0 A0A1 A1B1 B1C1 C1C0 C0B0"/>
    </vehicle>
    <vehicle id="veh51" depart="596.00" departLane="best" departPos="base" departSpeed="max">
        <route edges="B1B2 B2B1 B1C1"/>
    </vehicle>
    <vehicle id="veh52" depart="601.00" departLane="best" departPos="base" departSpeed="max">
        <route edges="B1C1 C1C0 C0B0 B0C0 C0C1"/>
    </vehicle>
    <vehicle id="veh53" depart="603.00" departLane="best" departPos="base" departSpeed="max">
        <route edges="C0B0 B0B1 B1C1 C1C2"/>
    </vehicle>
    <vehicle id="veh54" depart="646.00" departLane="best" departPos="base" departSpeed="max">
        <route edges="B0A0 A0A1 A1A0"/>
    </vehicle>
    <vehicle id="veh55" depart="650.00" departLane="best" departPos="base" departSpeed="max">
        <route edges="B1B0 B0B1 B1B2 B2A2"/>
    </vehicle>
    <vehicle id="veh56" depart="652.00" departLane="best" departPos="base" departSpeed="max">
        <route edges="A1A0 A0B0 B0A0 A0A1 A1B1"/>
    </vehicle>
    <vehicle id="veh57" depart="674.00" departLane="best" departPos="base" departSpeed="max">
        <route edges="C2B2 B2C2 C2C1 C1B1"/>
    </vehicle>
    <vehicle id="veh58" depart="682.00" departLane="best" departPos="base" departSpeed="max">
        <route edges="B1B0 B0B1"/>
    </vehicle>
    <vehicle id="veh59" depart="698.00" departLane="best" departPos="base" departSpeed="max">
        <route edges="C1B1 B1C1 C1C0"/>
    </vehicle>
    <vehicle id="veh60" depart="700.00" departLane="best" departPos="base" departSpeed="max">
        <route edges="A2B2 B2C2 C2C1 C1C0 C0B0"/>
    </vehicle>
    <vehicle id="veh61" depart="720.00" departLane="best" departPos="base" departSpeed="max">
        <route edges="B0A0 A0A1 A1B1 B1B0"/>
    </vehicle>
    <vehicle id="veh62" depart="730.00" departLane="best" departPos="base" departSpeed="max">
        <route edges="B0C0 C0C1 C1C0 C0B0"/>
    </vehicle>
    <vehicle id="veh63" depart="734.00" departLane="best" departPos="base" departSpeed="max">
        <route edges="C2C1 C1B1"/>
    </vehicle>
    <vehicle id="veh64" depart="767.00" departLane="best" departPos="base" departSpeed="max">
        <route edges="C2B2 B2B1 B1A1"/>
    </vehicle>
    <vehicle id="veh65" depart="775.00" departLane="best" departPos="base" departSpeed="max">
        <route edges="B0C0 C0C1 C1B1 B1B2 B2C2"/>
    </vehicle>
    <vehicle id="veh66" depart="780.00" departLane="best" departPos="base" departSpeed="max">
        <route edges="B0A0 A0A1 A1B1 B1B0 B0B1"/>
    </vehicle>
    <vehicle id="veh67" depart="804.00" departLane="best" departPos="base" departSpeed="max">
        <route edges="A2A1 A1B1 B1C1"/>
    </vehicle>
    <vehicle id="veh68" depart="831.00" departLane="best" departPos="base" departSpeed="max">
        <route edges="A0A1 A1B1"/>
    </vehicle>
    <vehicle id="veh69" depart="841.00" departLane="best" departPos="base" departSpeed="max">
        <route edges="A1B1 B1B0"/>
    </vehicle>
    <vehicle id="veh70" depart="851.00" departLane="best" departPos="base" departSpeed="max">
        <route edges="B2C2 C2C1 C1B1 B1A1 A1A2"/>
    </vehicle>
    <vehicle id="veh71" depart="873.00" departLane="best" departPos="base" departSpeed="max">
        <route edges="C0B0 B0B1 B1C1 C1C2"/>
    </vehicle>
    <vehicle id="veh72" depart="879.00" departLane="best" departPos="base" departSpeed="max">
        <route edges="A1A0 A0B0 B0B1 B1A1"/>
    </vehicle>
    <vehicle id="veh73" depart="882.00" departLane="best" departPos="base" departSpeed="max">
        <route edges="B2C2 C2C1 C1B1 B1B2"/>
    </vehicle>
    <vehicle id="veh74" depart="887.00" departLane="best" departPos="base" departSpeed="max">
        <route edges="C1C2 C2B2 B2C2 C2C1"/>
    </vehicle>
    <vehicle id="veh75" depart="901.00" departLane="best" departPos="base" departSpeed="max">
        <route edges="A2A1 A1B1 B1B0 B0A0"/>
    </vehicle>
    <vehicle id="veh76" depart="903.00" departLane="best" departPos="base" departSpeed="max">
        <route edges="C1C2 C2B2 B2C2 C2C1 C1B1"/>
    </vehicle>
    <vehicle id="veh77" depart="907.00" departLane="best" departPos="base" departSpeed="max">
        <route edges="A0A1 A1B1 B1C1 C1C2"/>
    </vehicle>
    <vehicle id="veh78" depart="928.00" departLane="best" departPos="base" departSpeed="max">
        <route edges="A1A0 A0B0 B0B1 B1C1 C1C0 C0B0"/>
    </vehicle>
    <vehicle id="veh79" depart="937.00" departLane="best" departPos="base" departSpeed="max">
        <route edges="A2A1 A1B1 B1B0 B0A0"/>
    </vehicle>
    <vehicle id="veh80" depart="959.00" departLane="best" departPos="base" departSpeed="max">
        <route edges="B2A2 A2A1 A1A2 A2B2"/>
    </vehicle>
    <vehicle id="veh81" depart="971.00" departLane="best" departPos="base" departSpeed="max">
        <route edges="B1B0 B0C0 C0C1"/>
    </vehicle>
    <vehicle id="veh82" depart="1001.00" departLane="best" departPos="base" departSpeed="max">
        <route edges="B2A2 A2A1 A1B1 B1C1 C1C0 C0B0"/>
    </vehicle>
    <vehicle id="veh83" depart="1006.00" departLane="best" departPos="base" departSpeed="max">
        <route edges="B1B0 B0B1 B1A1"/>
    </vehicle>
    <vehicle id="veh84" depart="1010.00" departLane="best" departPos="base" departSpeed="max">
        <route edges="C1C2 C2B2 B2B1 B1C1"/>
    </vehicle>
    <vehicle id="veh85" depart="1016.00" departLane="best" departPos="base" departSpeed="max">
        <route edges="B0A0 A0A1 A1B1 B1B2 B2A2"/>
    </vehicle>
    <vehicle id="veh86" depart="1028.00" departLane="best" departPos="base" departSpeed="max">
        <route edges="B0C0 C0C1 C1C0 C0B0 B0B1"/>
    </vehicle>
    <vehicle id="veh87" depart="1031.00" departLane="best" departPos="base" departSpeed="max">
        <route edges="B1B0 B0C0 C0C1"/>
    </vehicle>
    <vehicle id="veh88" depart="1036.00" departLane="best" departPos="base" departSpeed="max">
        <route edges="A2A1 A1B1 B1C1 C1C2"/>
    </vehicle>
    <vehicle id="veh89" depart="1041.00" departLane="best" departPos="base" departSpeed="max">
        <route edges="A0A1 A1A2 A2B2 B2C2 C2C1"/>
    </vehicle>
    <vehicle id="veh90" depart="1054.00" departLane="best" departPos="base" departSpeed="max">
        <route edges="B0C0 C0C1 C1C2 C2B2 B2B1"/>
    </vehicle>
    <vehicle id="veh91" depart="1055.00" departLane="best" departPos="base" departSpeed="max">
        <route edges="B0B1 B1B2 B2C2"/>
    </vehicle>
    <vehicle id="veh92" depart="1079.00" departLane="best" departPos="base" departSpeed="max">
        <route edges="B2C2 C2C1 C1C0 C0B0 B0B1"/>
    </vehicle>
    <vehicle id="veh93" depart="1081.00" departLane="best" departPos="base" departSpeed="max">
        <route edges="A1B1 B1A1 A1A2 A2B2"/>
    </vehicle>
    <vehicle id="veh94" depart="1093.00" departLane="best" departPos="base" departSpeed="max">
        <route edges="B0A0 A0A1 A1B1 B1B0 B0C0"/>
    </vehicle>
    <vehicle id="veh95" depart="1094.00" departLane="best" departPos="base" departSpeed="max">
        <route edges="C1C2 C2B2 B2B1 B1B0 B0A0"/>
    </vehicle>
    <vehicle id="veh96" depart="1097.00" departLane="best" departPos="base" departSpeed="max">
        <route edges="B0C0 C0C1 C1C2 C2B2 B2A2 A2A1"/>
    </vehicle>
    <vehicle id="veh97" depart="1098.00" departLane="best" departPos="base" departSpeed="max">
        <route edges="A1A2 A2B2 B2A2"/>
    </vehicle>
    <vehicle id="veh98" depart="1099.00" departLane="best" departPos="base" departSpeed="max">
        <route edges="B0A0 A0A1 A1B1 B1A1"/>
    </vehicle>
    <vehicle id="veh99" depart="1117.00" departLane="best" departPos="base" departSpeed="max">
        <route edges="A0A1 A1A2 A2B2 B2B1"/>
    </vehicle>
    <vehicle id="veh100" depart="1134.00" departLane="best" departPos="base" departSpeed="max">
        <route edges="B0C0 C0C1 C1B1 B1B0 B0A0"/>
    </vehicle>
    <vehicle id="veh101" depart="1151.00" departLane="best" departPos="base" departSpeed="max">
        <route edges="B0C0 C0C1 C1C0 C0B0 B0B1"/>
    </vehicle>
    <vehicle id="veh102" depart="1152.00" departLane="best" departPos="base" departSpeed="max">
        <route edges="B0C0 C0C1 C1B1 B1A1 A1A0 A0B0"/>
    </vehicle>
    <vehicle id="veh103" depart="1158.00" departLane="best" departPos="base" departSpeed="max">
        <route edges="B0B1 B1C1 C1C2"/>
    </vehicle>
    <vehicle id="veh104" depart="1179.00" departLane="best" departPos="base" departSpeed="max">
        <route edges="A1A2 A2B2 B2B1 B1B2"/>
    </vehicle>
    <vehicle id="veh105" depart="1188.00" departLane="best" departPos="base" departSpeed="max">
        <route edges="B1C1 C1C0 C0B0 B0C0"/>
    </vehicle>
    <vehicle id="veh106" depart="1220.00" departLane="best" departPos="base" departSpeed="max">
        <route edges="A0B0 B0B1 B1A1 A1A0"/>
    </vehicle>
    <vehicle id="veh107" depart="1229.00" departLane="best" departPos="base" departSpeed="max">
        <route edges="A2B2 B2B1 B1B2"/>
    </vehicle>
    <vehicle id="veh108" depart="1251.00" departLane="best" departPos="base" departSpeed="max">
        <route edges="B2A2 A2A1 A1B1 B1C1 C1C2 C2B2"/>
    </vehicle>
    <vehicle id="veh109" depart="1260.00" departLane="best" departPos="base" departSpeed="max">
        <route edges="C0B0 B0B1 B1A1 A1A0"/>
    </vehicle>
    <vehicle id="veh110" depart="1261.00" departLane="best" departPos="base" departSpeed="max">
        <route edges="A2B2 B2C2 C2C1 C1C0 C0B0"/>
    </vehicle>
    <vehicle id="veh111" depart="1265.00" departLane="best" departPos="base" departSpeed="max">
        <route edges="B1C1 C1B1 B1B0"/>
    </vehicle>
    <vehicle id="veh112" depart="1287.00" departLane="best" departPos="base" departSpeed="max">
        <route edges="B1C1 C1B1 B1A1 A1A2"/>
    </vehicle>
    <vehicle id="veh113" depart="1294.00" departLane="best" departPos="base" departSpeed="max">
        <route edges="A0B0 B0C0 C0C1 C1C2"/>
    </vehicle>
    <vehicle id="veh114" depart="1296.00" departLane="best" departPos="base" departSpeed="max">
        <route edges="A1B1 B1B0"/>
    </vehicle>
    <vehicle id="veh115" depart="1304.00" departLane="best" departPos="base" departSpeed="max">
        <route edges="B1C1 C1C2 C2B2 B2B1"/>
    </vehicle>
    <vehicle id="veh116" depart="1314.00" departLane="best" departPos="base" departSpeed="max">
        <route edges="A1B1 B1A1 A1A0"/>
    </vehicle>
    <vehicle id="veh117" depart="1315.00" departLane="best" departPos="base" departSpeed="max">
        <route edges="B0B1 B1B0 B0C0 C0C1"/>
    </vehicle>
    <vehicle id="veh118" depart="1318.00" departLane="best" departPos="base" departSpeed="max">
        <route edges="A2A1 A1B1 B1B2 B2C2 C2C1"/>
    </vehicle>
    <vehicle id="veh119" depart="1319.00" departLane="best" departPos="base" departSpeed="max">
        <route edges="B1B2 B2C2 C2C1 C1B1"/>
    </vehicle>
    <vehicle id="veh120" depart="1333.00" departLane="best" departPos="base" departSpeed="max">
        <route edges="B1C1 C1C2 C2B2 B2A2 A2A1"/>
    </vehicle>
    <vehicle id="veh121" depart="1356.00" departLane="best" departPos="base" departSpeed="max">
        <route edges="B1B2 B2B1 B1B0 B0C0"/>
    </vehicle>
    <vehicle id="veh122" depart="1401.00" departLane="best" departPos="base" departSpeed="max">
        <route edges="B2B1 B1A1"/>
    </vehicle>
    <vehicle id="veh123" depart="1425.00" departLane="best" departPos="base" departSpeed="max">
        <route edges="C1C0 C0B0"/>
    </vehicle>
    <vehicle id="veh124" depart="1434.00" departLane="best" departPos="base" departSpeed="max">
        <route edges="B1C1 C1C0 C0B0 B0C0 C0C1"/>
    </vehicle>
    <vehicle id="veh125" depart="1446.00" departLane="best" departPos="base" departSpeed="max">
        <route edges="B0B1 B1C1 C1C0"/>
    </vehicle>
    <vehicle id="veh126" depart="1454.00" departLane="best" departPos="base" departSpeed="max">
        <route edges="C2C1 C1B1 B1A1 A1B1"/>
    </vehicle>
    <vehicle id="veh127" depart="1461.00" departLane="best" departPos="base" departSpeed="max">
        <route edges="B0B1 B1B0 B0A0"/>
    </vehicle>
    <vehicle id="veh128" depart="1505.00" departLane="best" departPos="base" departSpeed="max">
        <route edges="B1A1 A1A2 A2B2"/>
    </vehicle>
    <vehicle id="veh129" depart="1532.00" departLane="best" departPos="base" departSpeed="max">
        <route edges="B2B1 B1B0"/>
    </vehicle>
    <vehicle id="veh130" depart="1546.00" departLane="best" departPos="base" departSpeed="max">
        <route edges="B1B0 B0C0"/>
    </vehicle>
    <vehicle id="veh131" depart="1566.00" departLane="best" departPos="base" departSpeed="max">
        <route edges="C1C0 C0B0 B0B1 B1C1 C1C2 C2B2"/>
    </vehicle>
    <vehicle id="veh132" depart="1568.00" departLane="best" departPos="base" departSpeed="max">
        <route edges="B0B1 B1B2"/>
    </vehicle>
    <vehicle id="veh133" depart="1583.00" departLane="best" departPos="base" departSpeed="max">
        <route edges="A2A1 A1B1 B1A1"/>
    </vehicle>
    <vehicle id="veh134" depart="1597.00" departLane="best" departPos="base" departSpeed="max">
        <route edges="A1A2 A2B2 B2C2 C2C1 C1B1"/>
    </vehicle>
    <vehicle id="veh135" depart="1602.00" departLane="best" departPos="base" departSpeed="max">
        <route edges="A1A0 A0B0 B0A0"/>
    </vehicle>
    <vehicle id="veh136" depart="1606.00" departLane="best" departPos="base" departSpeed="max">
        <route edges="B0C0 C0C1 C1B1 B1A1 A1A0 A0B0"/>
    </vehicle>
    <vehicle id="veh137" depart="1628.00" departLane="best" departPos="base" departSpeed="max">
        <route edges="C1C0 C0B0 B0B1 B1A1 A1A0 A0B0"/>
    </vehicle>
    <vehicle id="veh138" depart="1640.00" departLane="best" departPos="base" departSpeed="max">
        <route edges="B0C0 C0C1 C1B1 B1B2 B2C2 C2C1"/>
    </vehicle>
    <vehicle id="veh139" depart="1641.00" departLane="best" departPos="base" departSpeed="max">
        <route edges="B2A2 A2A1 A1B1 B1B2 B2C2 C2C1"/>
    </vehicle>
    <vehicle id="veh140" depart="1652.00" departLane="best" departPos="base" departSpeed="max">
        <route edges="A1A0 A0B0 B0B1 B1A1 A1A2 A2B2"/>
    </vehicle>
    <vehicle id="veh141" depart="1668.00" departLane="best" departPos="base" departSpeed="max">
        <route edges="C0C1 C1B1 B1A1 A1A0 A0B0"/>
    </vehicle>
    <vehicle id="veh142" depart="1673.00" departLane="best" departPos="base" departSpeed="max">
        <route edges="C2B2 B2B1 B1B0 B0C0 C0C1"/>
    </vehicle>
    <vehicle id="veh143" depart="1675.00" departLane="best" departPos="base" departSpeed="max">
        <route edges="C0B0 B0B1 B1A1"/>
    </vehicle>
    <vehicle id="veh144" depart="1679.00" departLane="best" departPos="base" departSpeed="max">
        <route edges="C0C1 C1B1 B1A1"/>
    </vehicle>
    <vehicle id="veh145" depart="1687.00" departLane="best" departPos="base" departSpeed="max">
        <route edges="A1A0 A0B0 B0B1 B1C1 C1C0"/>
    </vehicle>
    <vehicle id="veh146" depart="1703.00" departLane="best" departPos="base" departSpeed="max">
        <route edges="B1A1 A1A0 A0B0 B0C0"/>
    </vehicle>
    <vehicle id="veh147" depart="1734.00" departLane="best" departPos="base" departSpeed="max">
        <route edges="C1B1 B1B0 B0C0"/>
    </vehicle>
    <vehicle id="veh148" depart="1748.00" departLane="best" departPos="base" departSpeed="max">
        <route edges="B2C2 C2C1 C1B1 B1C1"/>
    </vehicle>
    <vehicle id="veh149" depart="1775.00" departLane="best" departPos="base" departSpeed="max">
        <route edges="B1B2 B2B1 B1A1 A1A2 A2B2"/>
    </vehicle>
    <vehicle id="veh150" depart="1796.00" departLane="best" departPos="base" departSpeed="max">
        <route edges="C2B2 B2B1 B1B0 B0B1"/>
    </vehicle>
    <vehicle id="veh151" depart="1811.00" departLane="best" departPos="base" departSpeed="max">
        <route edges="C1C2 C2B2 B2A2 A2A1 A1A0"/>
    </vehicle>
    <vehicle id="veh152" depart="1817.00" departLane="best" departPos="base" departSpeed="max">
        <route edges="B2B1 B1A1 A1A0 A0B0"/>
    </vehicle>
    <vehicle id="veh153" depart="1818.00" departLane="best" departPos="base" departSpeed="max">
        <route edges="B1C1 C1B1 B1B2 B2C2 C2C1"/>
    </vehicle>
    <vehicle id="veh154" depart="1823.00" departLane="best" departPos="base" departSpeed="max">
        <route edges="B1B2 B2A2 A2A1 A1B1"/>
    </vehicle>
    <vehicle id="veh155" depart="1831.00" departLane="best" departPos="base" departSpeed="max">
        <route edges="B1B0 B0B1 B1C1"/>
    </vehicle>
    <vehicle id="veh156" depart="1844.00" departLane="best" departPos="base" departSpeed="max">
        <route edges="B1B0 B0B1 B1B2 B2A2"/>
    </vehicle>
    <vehicle id="veh157" depart="1852.00" departLane="best" departPos="base" departSpeed="max">
        <route edges="A1A0 A0B0 B0B1 B1C1 C1C0"/>
    </vehicle>
    <vehicle id="veh158" depart="1854.00" departLane="best" departPos="base" departSpeed="max">
        <route edges="A0A1 A1B1 B1C1 C1B1"/>
    </vehicle>
    <vehicle id="veh159" depart="1860.00" departLane="best" departPos="base" departSpeed="max">
        <route edges="A0B0 B0C0 C0C1 C1B1"/>
    </vehicle>
    <vehicle id="veh160" depart="1866.00" departLane="best" departPos="base" departSpeed="max">
        <route edges="C0C1 C1B1 B1A1 A1A2 A2B2"/>
    </vehicle>
    <vehicle id="veh161" depart="1894.00" departLane="best" departPos="base" departSpeed="max">
        <route edges="C0C1 C1C2 C2B2 B2A2 A2A1"/>
    </vehicle>
    <vehicle id="veh162" depart="1914.00" departLane="best" departPos="base" departSpeed="max">
        <route edges="B1B0 B0C0"/>
    </vehicle>
    <vehicle id="veh163" depart="1915.00" departLane="best" departPos="base" departSpeed="max">
        <route edges="C1C2 C2B2 B2B1 B1A1 A1A2"/>
    </vehicle>
    <vehicle id="veh164" depart="1936.00" departLane="best" departPos="base" departSpeed="max">
        <route edges="A1B1 B1B0 B0B1"/>
    </vehicle>
    <vehicle id="veh165" depart="1937.00" departLane="best" departPos="base" departSpeed="max">
        <route edges="B0A0 A0A1 A1B1"/>
    </vehicle>
    <vehicle id="veh166" depart="1945.00" departLane="best" departPos="base" departSpeed="max">
        <route edges="A2A1 A1A0 A0B0"/>
    </vehicle>
    <vehicle id="veh167" depart="1963.00" departLane="best" departPos="base" departSpeed="max">
        <route edges="C0C1 C1B1 B1B0 B0C0"/>
    </vehicle>
    <vehicle id="veh168" depart="1964.00" departLane="best" departPos="base" departSpeed="max">
        <route edges="A1A2 A2B2 B2B1 B1A1 A1B1"/>
    </vehicle>
    <vehicle id="veh169" depart="1967.00" departLane="best" departPos="base" departSpeed="max">
        <route edges="A2A1 A1B1 B1C1 C1B1"/>
    </vehicle>
    <vehicle id="veh170" depart="1972.00" departLane="best" departPos="base" departSpeed="max">
        <route edges="B0A0 A0A1"/>
    </vehicle>
    <vehicle id="veh171" depart="2010.00" departLane="best" departPos="base" departSpeed="max">
        <route edges="B1B0 B0A0 A0A1 A1A2 A2B2"/>
    </vehicle>
    <vehicle id="veh172" depart="2054.00" departLane="best" departPos="base" departSpeed="max">
        <route edges="B1B2 B2B1 B1B0 B0B1"/>
    </vehicle>
    <vehicle id="veh173" depart="2060.00" departLane="best" departPos="base" departSpeed="max">
        <route edges="B2C2 C2C1 C1B1 B1A1 A1A0"/>
    </vehicle>
    <vehicle id="veh174" depart="2071.00" departLane="best" departPos="base" departSpeed="max">
        <route edges="C1C0 C0B0 B0C0 C0C1"/>
    </vehicle>
    <vehicle id="veh175" depart="2080.00" departLane="best" departPos="base" departSpeed="max">
        <route edges="A1A2 A2B2 B2C2 C2C1 C1B1"/>
    </vehicle>
    <vehicle id="veh176" depart="2104.00" departLane="best" departPos="base" departSpeed="max">
        <route edges="C1C0 C0B0 B0B1 B1B2"/>
    </vehicle>
    <vehicle id="veh177" depart="2112.00" departLane="best" departPos="base" departSpeed="max">
        <route edges="A0B0 B0B1"/>
    </vehicle>
    <vehicle id="veh178" depart="2135.00" departLane="best" departPos="base" departSpeed="max">
        <route edges="A1A2 A2B2 B2B1 B1C1"/>
    </vehicle>
    <vehicle id="veh179" depart="2149.00" departLane="best" departPos="base" departSpeed="max">
        <route edges="A0B0 B0B1 B1A1 A1A2 A2B2"/>
    </vehicle>
    <vehicle id="veh180" depart="2160.00" departLane="best" departPos="base" departSpeed="max">
        <route edges="C0B0 B0A0 A0A1 A1A2"/>
    </vehicle>
    <vehicle id="veh181" depart="2161.00" departLane="best" departPos="base" departSpeed="max">
        <route edges="B1B0 B0A0 A0A1"/>
    </vehicle>
    <vehicle id="veh182" depart="2162.00" departLane="best" departPos="base" departSpeed="max">
        <route edges="B0C0 C0C1 C1B1 B1B0"/>
    </vehicle>
    <vehicle id="veh183" depart="2214.00" departLane="best" departPos="base" departSpeed="max">
        <route edges="B0C0 C0C1"/>
    </vehicle>
    <vehicle id="veh184" depart="2222.00" departLane="best" departPos="base" departSpeed="max">
        <route edges="B1C1 C1B1"/>