<?xml version="1.0" encoding="UTF-8"?>

<!-- generated on 2025-11-21 23:04:13.515260 by Eclipse SUMO randomTrips.py v1_25_0+0000-ac6c5a6752d
<configuration>
    <net-file value="data\scenarios\high\network.net.xml"/>
    <route-file value="data\scenarios\high\routes.rou.xml"/>
    <prefix value="veh"/>
    <trip-attributes value="departLane=&quot;best&quot; departSpeed=&quot;max&quot; departPos=&quot;base&quot;"/>
    <seed value="13"/>
    <period value="2.0"/>
    <binomial value="1"/>
</configuration>
-->

<!-- generated on 2025-11-21T23:04:13.276171+05:30 by Eclipse SUMO duarouter 1.25.0
<duarouterConfiguration xmlns:xsi="http://www.w3.org/2001/XMLSchema-instance" xsi:noNamespaceSchemaLocation="http://sumo.dlr.de/xsd/duarouterConfiguration.xsd">

    <input>
        <net-file value="data\scenarios\high\network.net.xml"/>
        <route-files value="trips.trips.xml"/>
    </input>

    <output>
        <output-file value="data\scenarios\high\routes.rou.xml"/>
        <alternatives-output value="NUL"/>
    </output>

    <time>
        <begin value="0"/>
        <end value="3600"/>
    </time>

    <report>
        <no-warnings value="true"/>
        <ignore-errors value="true"/>
        <no-step-log value="true"/>
    </report>

</duarouterConfiguration>
-->

<routes xmlns:xsi="http://www.w3.org/2001/XMLSchema-instance" xsi:noNamespaceSchemaLocation="http://sumo.dlr.de/xsd/routes_file.xsd">
    <vehicle id="veh0" depart="0.00" departLane="best" departPos="base" departSpeed="max">
        <route edges="B2C2"/>
    </vehicle>
    <vehicle id="veh1" depart="2.00" departLane="best" departPos="base" departSpeed="max">
        <route edges="A2A1 A1A2"/>
    </vehicle>
    <vehicle id="veh2" depart="3.00" departLane="best" departPos="base" departSpeed="max">
        <route edges="C0B0 B0A0 A0A1 A1A2"/>
    </vehicle>
    <vehicle id="veh3" depart="5.00" departLane="best" departPos="base" departSpeed="max">
        <route edges="B0A0 A0A1 A1B1 B1A1"/>
    </vehicle>
    <vehicle id="veh4" depart="8.00" departLane="best" departPos="base" departSpeed="max">
        <route edges="A2B2 B2B1 B1A1 A1A2"/>
    </vehicle>
    <vehicle id="veh5" depart="16.00" departLane="best" departPos="base" departSpeed="max">
        <route edges="C1C0 C0B0 B0B1 B1B0"/>
    </vehicle>
    <vehicle id="veh6" depart="19.00" departLane="best" departPos="base" departSpeed="max">
        <route edges="B0B1 B1A1"/>
    </vehicle>
    <vehicle id="veh7" depart="20.00" departLane="best" departPos="base" departSpeed="max">
        <route edges="A1A0 A0B0 B0C0 C0C1 C1B1"/>
    </vehicle>
    <vehicle id="veh8" depart="26.00" departLane="best" departPos="base" departSpeed="max">
        <route edges="B2C2 C2C1 C1B1 B1A1"/>
    </vehicle>
    <vehicle id="veh9" depart="27.00" departLane="best" departPos="base" departSpeed="max">
        <route edges="A1B1 B1B2"/>
    </vehicle>
    <vehicle id="veh10" depart="28.00" departLane="best" departPos="base" departSpeed="max">
        <route edges="B1B0 B0B1 B1B2 B2A2"/>
    </vehicle>
    <vehicle id="veh11" depart="29.00" departLane="best" departPos="base" departSpeed="max">
        <route edges="A1A2 A2B2 B2B1 B1B0"/>
    </vehicle>
    <vehicle id="veh12" depart="30.00" departLane="best" departPos="base" departSpeed="max">
        <route edges="A2A1 A1B1"/>
    </vehicle>
    <vehicle id="veh13" depart="31.00" departLane="best" departPos="base" departSpeed="max">
        <route edges="A0B0 B0B1 B1B2 B2B1"/>
    </vehicle>
    <vehicle id="veh14" depart="33.00" departLane="best" departPos="base" departSpeed="max">
        <route edges="C0B0 B0B1 B1C1 C1C2 C2B2"/>
    </vehicle>
    <vehicle id="veh15" depart="34.00" departLane="best" departPos="base" departSpeed="max">
        <route edges="A1A2 A2B2 B2C2 C2C1 C1B1"/>
    </vehicle>
    <vehicle id="veh16" depart="37.00" departLane="best" departPos="base" departSpeed="max">
        <route edges="B0C0 C0C1 C1C0"/>
    </vehicle>
    <vehicle id="veh17" depart="40.00" departLane="best" departPos="base" departSpeed="max">
        <route edges="C1C0 C0B0 B0B1"/>
    </vehicle>
    <vehicle id="veh18" depart="42.00" departLane="best" departPos="base" departSpeed="max">
        <route edges="C2C1 C1B1 B1B2 B2A2"/>
    </vehicle>
    <vehicle id="veh19" depart="44.00" departLane="best" departPos="base" departSpeed="max">
        <route edges="B2A2 A2A1 A1B1 B1C1"/>
    </vehicle>
    <vehicle id="veh20" depart="46.00" departLane="best" departPos="base" departSpeed="max">
        <route edges="C0B0 B0B1"/>
    </vehicle>
    <vehicle id="veh21" depart="47.00" departLane="best" departPos="base" departSpeed="max">
        <route edges="A1A2 A2B2 B2C2"/>
    </vehicle>
    <vehicle id="veh22" depart="48.00" departLane="best" departPos="base" departSpeed="max">
        <route edges="A2A1 A1A0 A0B0"/>
    </vehicle>
    <vehicle id="veh23" depart="52.00" departLane="best" departPos="base" departSpeed="max">
        <route edges="B1A1 A1A0 A0B0 B0B1"/>
    </vehicle>
    <vehicle id="veh24" depart="53.00" departLane="best" departPos="base" departSpeed="max">
        <route edges="A0A1 A1A2 A2B2 B2C2 C2C1"/>
    </vehicle>
    <vehicle id="veh25" depart="54.00" departLane="best" departPos="base" departSpeed="max">
        <route edges="B0A0 A0A1 A1A2 A2B2"/>
    </vehicle>
    <vehicle id="veh26" depart="56.00" departLane="best" departPos="base" departSpeed="max">
        <route edges="B1B0 B0B1"/>
    </vehicle>
    <vehicle id="veh27" depart="58.00" departLane="best" departPos="base" departSpeed="max">
        <route edges="B0B1 B1B0"/>
    </vehicle>
    <vehicle id="veh28" depart="61.00" departLane="best" departPos="base" departSpeed="max">
        <route edges="B2C2 C2C1 C1C0 C0B0 B0A0"/>
    </vehicle>
    <vehicle id="veh29" depart="62.00" departLane="best" departPos="base" departSpeed="max">
        <route edges="B1B2 B2C2 C2C1 C1C2"/>
    </vehicle>
    <vehicle id="veh30" depart="64.00" departLane="best" departPos="base" departSpeed="max">
        <route edges="B2C2 C2C1 C1C0"/>
    </vehicle>
    <vehicle id="veh31" depart="65.00" departLane="best" departPos="base" departSpeed="max">
        <route edges="B2A2 A2A1 A1A0 A0B0 B0B1"/>
    </vehicle>
    <vehicle id="veh32" depart="66.00" departLane="best" departPos="base" departSpeed="max">
        <route edges="A2B2 B2B1 B1A1 A1B1"/>
    </vehicle>
    <vehicle id="veh33" depart="67.00" departLane="best" departPos="base" departSpeed="max">
        <route edges="A0A1 A1B1 B1B0 B0C0"/>
    </vehicle>
    <vehicle id="veh34" depart="68.00" departLane="best" departPos="base" departSpeed="max">
        <route edges="C0C1 C1C2 C2B2 B2A2"/>
    </vehicle>
    <vehicle id="veh35" depart="69.00" departLane="best" departPos="base" departSpeed="max">
        <route edges="C0C1 C1B1 B1A1 A1B1"/>
    </vehicle>
    <vehicle id="veh36" depart="70.00" departLane="best" departPos="base" departSpeed="max">
        <route edges="B1C1 C1C0 C0B0 B0A0"/>
    </vehicle>
    <vehicle id="veh37" depart="71.00" departLane="best" departPos="base" departSpeed="max">
        <route edges="B1A1 A1A2"/>
    </vehicle>
    <vehicle id="veh38" depart="73.00" departLane="best" departPos="base" departSpeed="max">
        <route edges="C1B1 B1B2 B2A2 A2A1"/>
    </vehicle>
    <vehicle id="veh39" depart="74.00" departLane="best" departPos="base" departSpeed="max">
        <route edges="B0C0 C0C1 C1B1 B1B0 B0A0 A0A1"/>
    </vehicle>
    <vehicle id="veh40" depart="75.00" departLane="best" departPos="base" departSpeed="max">
        <route edges="B0B1 B1A1"/>
    </vehicle>
    <vehicle id="veh41" depart="78.00" departLane="best" departPos="base" departSpeed="max">
        <route edges="B1B2 B2B1 B1A1 A1A2"/>
    </vehicle>
    <vehicle id="veh42" depart="80.00" departLane="best" departPos="base" departSpeed="max">
        <route edges="C1C2 C2B2 B2B1 B1C1"/>
    </vehicle>
    <vehicle id="veh43" depart="81.00" departLane="best" departPos="base" departSpeed="max">
        <route edges="A0A1 A1B1 B1B2 B2A2 A2A1"/>
    </vehicle>
    <vehicle id="veh44" depart="83.00" departLane="best" departPos="base" departSpeed="max">
        <route edges="B1B0 B0B1"/>
    </vehicle>
    <vehicle id="veh45" depart="84.00" departLane="best" departPos="base" departSpeed="max">
        <route edges="C1B1 B1B2 B2A2 A2A1"/>
    </vehicle>
    <vehicle id="veh46" depart="90.00" departLane="best" departPos="base" departSpeed="max">
        <route edges="B1C1 C1C2 C2B2 B2A2"/>
    </vehicle>
    <vehicle id="veh47" depart="93.00" departLane="best" departPos="base" departSpeed="max">
        <route edges="A1A2 A2B2 B2B1 B1B2"/>
    </vehicle>
    <vehicle id="veh48" depart="96.00" departLane="best" departPos="base" departSpeed="max">
        <route edges="C2C1 C1C0 C0B0 B0A0"/>
    </vehicle>
    <vehicle id="veh49" depart="97.00" departLane="best" departPos="base" departSpeed="max">
        <route edges="A0B0 B0A0 A0A1"/>
    </vehicle>
    <vehicle id="veh50" depart="99.00" departLane="best" departPos="base" departSpeed="max">
        <route edges="C0B0 B0B1 B1C1 C1C0"/>
    </vehicle>
    <vehicle id="veh51" depart="102.00" departLane="best" departPos="base" departSpeed="max">
        <route edges="B2A2 A2A1 A1B1 B1C1 C1B1"/>
    </vehicle>
    <vehicle id="veh52" depart="104.00" departLane="best" departPos="base" departSpeed="max">
        <route edges="C0C1 C1B1 B1A1 A1A0"/>
    </vehicle>
    <vehicle id="veh53" depart="105.00" departLane="best" departPos="base" departSpeed="max">
        <route edges="C2C1 C1B1 B1B0"/>
    </vehicle>
    <vehicle id="veh54" depart="106.00" departLane="best" departPos="base" departSpeed="max">
        <route edges="C0C1 C1B1 B1A1"/>
    </vehicle>
    <vehicle id="veh55" depart="107.00" departLane="best" departPos="base" departSpeed="max">
        <route edges="A0A1 A1A2 A2B2"/>
    </vehicle>
    <vehicle id="veh56" depart="108.00" departLane="best" departPos="base" departSpeed="max">
        <route edges="C2B2 B2A2 A2A1"/>
    </vehicle>
    <vehicle id="veh57" depart="111.00" departLane="best" departPos="base" departSpeed="max">
        <route edges="C2C1 C1B1 B1B0 B0C0 C0C1"/>
    </vehicle>
    <vehicle id="veh58" depart="112.00" departLane="best" departPos="base" departSpeed="max">
        <route edges="A2B2 B2B1 B1B0"/>
    </vehicle>
    <vehicle id="veh59" depart="115.00" departLane="best" departPos="base" departSpeed="max">
        <route edges="B0C0 C0C1 C1B1 B1B0"/>
    </vehicle>
    <vehicle id="veh60" depart="116.00" departLane="best" departPos="base" departSpeed="max">
        <route edges="B1C1 C1C0 C0B0 B0A0 A0A1"/>
    </vehicle>
    <vehicle id="veh61" depart="118.00" departLane="best" departPos="base" departSpeed="max">
        <route edges="A1A0 A0B0 B0B1 B1B2 B2A2"/>
    </vehicle>
    <vehicle id="veh62" depart="119.00" departLane="best" departPos="base" departSpeed="max">
        <route edges="C1C2 C2B2 B2B1 B1B0"/>
    </vehicle>
    <vehicle id="veh63" depart="122.00" departLane="best" departPos="base" departSpeed="max">
        <route edges="C0B0 B0B1 B1B2 B2B1"/>
    </vehicle>
    <vehicle id="veh64" depart="123.00" departLane="best" departPos="base" departSpeed="max">
        <route edges="C2C1 C1C0 C0B0 B0A0 A0A1"/>
    </vehicle>
    <vehicle id="veh65" depart="125.00" departLane="best" departPos="base" departSpeed="max">
        <route edges="C1C0 C0B0 B0A0 A0A1 A1A2"/>
    </vehicle>
    <vehicle id="veh66" depart="126.00" departLane="best" departPos="base" departSpeed="max">
        <route edges="B1B2 B2C2 C2C1 C1C2 C2B2"/>
    </vehicle>
    <vehicle id="veh67" depart="127.00" departLane="best" departPos="base" departSpeed="max">
        <route edges="B1B0 B0B1 B1B2 B2A2"/>
    </vehicle>
    <vehicle id="veh68" depart="128.00" departLane="best" departPos="base" departSpeed="max">
        <route edges="B1B2 B2B1 B1B0 B0A0 A0A1"/>
    </vehicle>
    <vehicle id="veh69" depart="129.00" departLane="best" departPos="base" departSpeed="max">
        <route edges="C0C1 C1C0 C0B0 B0B1"/>
    </vehicle>
    <vehicle id="veh70" depart="130.00" departLane="best" departPos="base" departSpeed="max">
        <route edges="A0B0 B0B1 B1B2 B2C2"/>
    </vehicle>
    <vehicle id="veh71" depart="131.00" departLane="best" departPos="base" departSpeed="max">
        <route edges="C1C2 C2B2 B2B1 B1C1 C1C0 C0B0"/>
    </vehicle>
    <vehicle id="veh72" depart="132.00" departLane="best" departPos="base" departSpeed="max">
        <route edges="C1C2 C2B2"/>
    </vehicle>
    <vehicle id="veh73" depart="139.00" departLane="best" departPos="base" departSpeed="max">
        <route edges="A1A2 A2B2 B2C2 C2C1 C1C0 C0B0"/>
    </vehicle>
    <vehicle id="veh74" depart="141.00" departLane="best" departPos="base" departSpeed="max">
        <route edges="B2B1 B1B2 B2A2"/>
    </vehicle>
    <vehicle id="veh75" depart="145.00" departLane="best" departPos="base" departSpeed="max">
        <route edges="C1B1 B1B0"/>
    </vehicle>
    <vehicle id="veh76" depart="147.00" departLane="best" departPos="base" departSpeed="max">
        <route edges="C2B2 B2B1 B1A1"/>
    </vehicle>
    <vehicle id="veh77" depart="149.00" departLane="best" departPos="base" departSpeed="max">
        <route edges="B2C2 C2C1 C1C2"/>
    </vehicle>
    <vehicle id="veh78" depart="151.00" departLane="best" departPos="base" departSpeed="max">
        <route edges="A0B0 B0B1 B1B0"/>
    </vehicle>
    <vehicle id="veh79" depart="152.00" departLane="best" departPos="base" departSpeed="max">
        <route edges="C1B1 B1B0 B0C0 C0C1"/>
    </vehicle>
    <vehicle id="veh80" depart="154.00" departLane="best" departPos="base" departSpeed="max">
        <route edges="B0C0 C0C1 C1B1 B1C1"/>
    </vehicle>
    <vehicle id="veh81" depart="156.00" departLane="best" departPos="base" departSpeed="max">
        <route edges="A2A1 A1A2"/>
    </vehicle>
    <vehicle id="veh82" depart="157.00" departLane="best" departPos="base" departSpeed="max">
        <route edges="B0A0 A0A1 A1A2 A2B2 B2C2 C2C1"/>
    </vehicle>
    <vehicle id="veh83" depart="158.00" departLane="best" departPos="base" departSpeed="max">
        <route edges="C2B2 B2B1 B1B0 B0A0"/>
    </vehicle>
    <vehicle id="veh84" depart="159.00" departLane="best" departPos="base" departSpeed="max">
        <route edges="C2C1 C1B1 B1A1 A1A0"/>
    </vehicle>
    <vehicle id="veh85" depart="160.00" departLane="best" departPos="base" departSpeed="max">
        <route edges="A1A2 A2B2 B2B1 B1A1 A1A0 A0B0"/>
    </vehicle>
    <vehicle id="veh86" depart="161.00" departLane="best" departPos="base" departSpeed="max">
        <route edges="A2A1 A1A2"/>
    </vehicle>
    <vehicle id="veh87" depart="162.00" departLane="best" departPos="base" departSpeed="max">
        <route edges="B2C2 C2C1 C1B1 B1A1 A1A0 A0B0"/>
    </vehicle>
    <vehicle id="veh88" depart="163.00" departLane="best" departPos="base" departSpeed="max">
        <route edges="B1C1 C1C2"/>
    </vehicle>
    <vehicle id="veh89" depart="169.00" departLane="best" departPos="base" departSpeed="max">
        <route edges="A0B0 B0B1 B1B2 B2A2"/>
    </vehicle>
    <vehicle id="veh90" depart="173.00" departLane="best" departPos="base" departSpeed="max">
        <route edges="B2C2 C2C1 C1B1 B1A1"/>
    </vehicle>
    <vehicle id="veh91" depart="174.00" departLane="best" departPos="base" departSpeed="max">
        <route edges="A2A1 A1A2 A2B2"/>
    </vehicle>
    <vehicle id="veh92" depart="178.00" departLane="best" departPos="base" departSpeed="max">
        <route edges="C0B0 B0B1 B1A1 A1A0"/>
    </vehicle>
    <vehicle id="veh93" depart="180.00" departLane="best" departPos="base" departSpeed="max">
        <route edges="C1C0 C0B0 B0B1 B1B2 B2C2 C2C1"/>
    </vehicle>
    <vehicle id="veh94" depart="181.00" departLane="best" departPos="base" departSpeed="max">
        <route edges="C1B1 B1B2 B2A2 A2A1"/>
    </vehicle>
    <vehicle id="veh95" depart="182.00" departLane="best" departPos="base" departSpeed="max">
        <route edges="A1A0 A0B0 B0B1 B1A1"/>
    </vehicle>
    <vehicle id="veh96" depart="183.00" departLane="best" departPos="base" departSpeed="max">
        <route edges="B2C2 C2C1 C1B1 B1C1"/>
    </vehicle>
    <vehicle id="veh97" depart="184.00" departLane="best" departPos="base" departSpeed="max">
        <route edges="C0B0 B0B1 B1B2 B2A2 A2A1"/>
    </vehicle>
    <vehicle id="veh98" depart="185.00" departLane="best" departPos="base" departSpeed="max">
        <route edges="B0B1 B1B0 B0A0 A0A1"/>
    </vehicle>
    <vehicle id="veh99" depart="187.00" departLane="best" departPos="base" departSpeed="max">
        <route edges="A1A0 A0B0 B0C0 C0C1 C1B1"/>
    </vehicle>
    <vehicle id="veh100" depart="189.00" departLane="best" departPos="base" departSpeed="max">
        <route edges="B1A1 A1A2"/>
    </vehicle>
    <vehicle id="veh101" depart="190.00" departLane="best" departPos="base" departSpeed="max">
        <route edges="B1B2 B2A2 A2A1"/>
    </vehicle>
    <vehicle id="veh102" depart="191.00" departLane="best" departPos="base" departSpeed="max">
        <route edges="C1C2 C2B2 B2B1 B1B0 B0A0 A0A1"/>
    </vehicle>
    <vehicle id="veh103" depart="192.00" departLane="best" departPos="base" departSpeed="max">
        <route edges="C0C1 C1C0 C0B0"/>
    </vehicle>
    <vehicle id="veh104" depart="193.00" departLane="best" departPos="base" departSpeed="max">
        <route edges="C0B0 B0B1 B1C1"/>
    </vehicle>
    <vehicle id="veh105" depart="199.00" departLane="best" departPos="base" departSpeed="max">
        <route edges="B1C1 C1B1"/>
    </vehicle>
    <vehicle id="veh106" depart="201.00" departLane="best" departPos="base" departSpeed="max">
        <route edges="A0A1 A1B1 B1B0 B0C0 C0C1"/>
    </vehicle>
    <vehicle id="veh107" depart="202.00" departLane="best" departPos="base" departSpeed="max">
        <route edges="B1A1 A1A2 A2B2"/>
    </vehicle>
    <vehicle id="veh108" depart="204.00" departLane="best" departPos="base" departSpeed="max">
        <route edges="C1C0 C0B0 B0B1 B1B2 B2A2"/>
    </vehicle>
    <vehicle id="veh109" depart="207.00" departLane="best" departPos="base" departSpeed="max">
        <route edges="B1B2 B2B1 B1B0 B0C0 C0C1"/>
    </vehicle>
    <vehicle id="veh110" depart="213.00" departLane="best" departPos="base" departSpeed="max">
        <route edges="A2A1 A1B1 B1A1"/>
    </vehicle>
    <vehicle id="veh111" depart="214.00" departLane="best" departPos="base" departSpeed="max">
        <route edges="C1C2 C2B2 B2A2 A2A1 A1A0 A0B0"/>
    </vehicle>
    <vehicle id="veh112" depart="215.00" departLane="best" departPos="base" departSpeed="max">
        <route edges="C0B0 B0B1 B1B0"/>
    </vehicle>
    <vehicle id="veh113" depart="217.00" departLane="best" departPos="base" departSpeed="max">
        <route edges="C0C1 C1B1 B1A1"/>
    </vehicle>
    <vehicle id="veh114" depart="219.00" departLane="best" departPos="base" departSpeed="max">
        <route edges="B0C0 C0C1 C1B1"/>
    </vehicle>
    <vehicle id="veh115" depart="222.00" departLane="best" departPos="base" departSpeed="max">
        <route edges="A0A1 A1A2 A2B2 B2C2"/>
    </vehicle>
    <vehicle id="veh116" depart="223.00" departLane="best" departPos="base" departSpeed="max">
        <route edges="C0B0 B0B1 B1B2 B2A2"/>
    </vehicle>
    <vehicle id="veh117" depart="224.00" departLane="best" departPos="base" departSpeed="max">
        <route edges="C1C0 C0B0 B0A0 A0A1 A1A2"/>
    </vehicle>
    <vehicle id="veh118" depart="226.00" departLane="best" departPos="base" departSpeed="max">
        <route edges="C2C1 C1B1 B1B2 B2A2"/>
    </vehicle>
    <vehicle id="veh119" depart="227.00" departLane="best" departPos="base" departSpeed="max">
        <route edges="C2B2 B2B1 B1B2"/>
    </vehicle>
    <vehicle id="veh120" depart="229.00" departLane="best" departPos="base" departSpeed="max">
        <route edges="C1B1 B1B2 B2B1"/>
    </vehicle>
    <vehicle id="veh121" depart="230.00" departLane="best" departPos="base" departSpeed="max">
        <route edges="A1A0 A0B0 B0B1 B1A1"/>
    </vehicle>
    <vehicle id="veh122" depart="233.00" departLane="best" departPos="base" departSpeed="max">
        <route edges="A0A1 A1B1 B1C1 C1B1"/>
    </vehicle>
    <vehicle id="veh123" depart="234.00" departLane="best" departPos="base" departSpeed="max">
        <route edges="C0B0 B0B1 B1B0"/>
    </vehicle>
    <vehicle id="veh124" depart="236.00" departLane="best" departPos="base" departSpeed="max">
        <route edges="C1B1 B1C1 C1C0 C0B0"/>
    </vehicle>
    <vehicle id="veh125" depart="237.00" departLane="best" departPos="base" departSpeed="max">
        <route edges="B1C1 C1C0 C0B0 B0A0"/>
    </vehicle>
    <vehicle id="veh126" depart="241.00" departLane="best" departPos="base" departSpeed="max">
        <route edges="B2A2 A2A1"/>
    </vehicle>
    <vehicle id="veh127" depart="242.00" departLane="best" departPos="base" departSpeed="max">
        <route edges="A1A0 A0B0 B0B1 B1C1 C1C0 C0B0"/>
    </vehicle>
    <vehicle id="veh128" depart="243.00" departLane="best" departPos="base" departSpeed="max">
        <route edges="B1B2 B2A2 A2A1 A1B1"/>
    </vehicle>
    <vehicle id="veh129" depart="245.00" departLane="best" departPos="base" departSpeed="max">
        <route edges="A0A1 A1B1 B1B2 B2A2"/>
    </vehicle>
    <vehicle id="veh130" depart="250.00" departLane="best" departPos="base" departSpeed="max">
        <route edges="B2B1"/>
    </vehicle>
    <vehicle id="veh131" depart="251.00" departLane="best" departPos="base" departSpeed="max">
        <route edges="A1A2 A2B2 B2A2 A2A1"/>
    </vehicle>
    <vehicle id="veh132" depart="256.00" departLane="best" departPos="base" departSpeed="max">
        <route edges="C0B0 B0B1 B1B2"/>
    </vehicle>
    <vehicle id="veh133" depart="257.00" departLane="best" departPos="base" departSpeed="max">
        <route edges="B2A2 A2A1"/>
    </vehicle>
    <vehicle id="veh134" depart="258.00" departLane="best" departPos="base" departSpeed="max">
        <route edges="B1A1 A1A0 A0B0 B0C0 C0C1"/>
    </vehicle>
    <vehicle id="veh135" depart="259.00" departLane="best" departPos="base" departSpeed="max">
        <route edges="B1A1 A1A2 A2B2 B2A2 A2A1"/>
    </vehicle>
    <vehicle id="veh136" depart="262.00" departLane="best" departPos="base" departSpeed="max">
        <route edges="C0B0 B0B1 B1B0"/>
    </vehicle>
    <vehicle id="veh137" depart="263.00" departLane="best" departPos="base" departSpeed="max">
        <route edges="A2B2 B2B1 B1B2"/>
    </vehicle>
    <vehicle id="veh138" depart="266.00" departLane="best" departPos="base" departSpeed="max">
        <route edges="C0C1 C1B1 B1C1"/>
    </vehicle>
    <vehicle id="veh139" depart="267.00" departLane="best" departPos="base" departSpeed="max">
        <route edges="A2A1 A1B1 B1A1"/>
    </vehicle>
    <vehicle id="veh140" depart="269.00" departLane="best" departPos="base" departSpeed="max">
        <route edges="A1A2 A2B2 B2B1 B1C1 C1C2"/>
    </vehicle>
    <vehicle id="veh141" depart="270.00" departLane="best" departPos="base" departSpeed="max">
        <route edges="A0B0 B0C0 C0C1 C1C2"/>
    </vehicle>
    <vehicle id="veh142" depart="271.00" departLane="best" departPos="base" departSpeed="max">
        <route edges="B0B1 B1B2 B2A2"/>
    </vehicle>
    <vehicle id="veh143" depart="274.00" departLane="best" departPos="base" departSpeed="max">
        <route edges="B1C1 C1C2"/>
    </vehicle>
    <vehicle id="veh144" depart="275.00" departLane="best" departPos="base" departSpeed="max">
        <route edges="C0B0 B0B1 B1B0"/>
    </vehicle>
    <vehicle id="veh145" depart="278.00" departLane="best" departPos="base" departSpeed="max">
        <route edges="C0B0 B0B1"/>
    </vehicle>
    <vehicle id="veh146" depart="285.00" departLane="best" departPos="base" departSpeed="max">
        <route edges="B1C1 C1B1 B1A1 A1A0 A0B0"/>
    </vehicle>
    <vehicle id="veh147" depart="288.00" departLane="best" departPos="base" departSpeed="max">
        <route edges="C1B1 B1A1"/>
    </vehicle>
    <vehicle id="veh148" depart="289.00" departLane="best" departPos="base" departSpeed="max">
        <route edges="A1B1 B1C1"/>
    </vehicle>
    <vehicle id="veh149" depart="290.00" departLane="best" departPos="base" departSpeed="max">
        <route edges="A0B0 B0A0"/>
    </vehicle>
    <vehicle id="veh150" depart="292.00" departLane="best" departPos="base" departSpeed="max">
        <route edges="B2C2 C2C1 C1B1 B1A1"/>
    </vehicle>
    <vehicle id="veh151" depart="293.00" departLane="best" departPos="base" departSpeed="max">
        <route edges="B2A2 A2A1"/>
    </vehicle>
    <vehicle id="veh152" depart="294.00" departLane="best" departPos="base" departSpeed="max">
        <route edges="B2A2 A2A1 A1B1 B1B2 B2C2"/>
    </vehicle>
    <vehicle id="veh153" depart="295.00" departLane="best" departPos="base" departSpeed="max">
        <route edges="C2B2 B2B1 B1B0 B0A0 A0A1"/>
    </vehicle>
    <vehicle id="veh154" depart="296.00" departLane="best" departPos="base" departSpeed="max">
        <route edges="B0A0 A0A1 A1B1 B1C1 C1B1"/>
    </vehicle>
    <vehicle id="veh155" depart="299.00" departLane="best" departPos="base" departSpeed="max">
        <route edges="C1C2 C2B2 B2B1 B1A1 A1A2"/>
    </vehicle>
    <vehicle id="veh156" depart="301.00" departLane="best" departPos="base" departSpeed="max">
        <route edges="A1A2 A2B2 B2B1 B1B0 B0C0 C0C1"/>
    </vehicle>
    <vehicle id="veh157" depart="304.00" departLane="best" departPos="base" departSpeed="max">
        <route edges="C1C0 C0B0 B0B1 B1B2"/>
    </vehicle>
    <vehicle id="veh158" depart="305.00" departLane="best" departPos="base" departSpeed="max">
        <route edges="A1A0 A0B0 B0B1 B1B2 B2C2 C2C1"/>
    </vehicle>
    <vehicle id="veh159" depart="306.00" departLane="best" departPos="base" departSpeed="max">
        <route edges="A2A1 A1A0 A0B0 B0B1"/>
    </vehicle>
    <vehicle id="veh160" depart="311.00" departLane="best" departPos="base" departSpeed="max">
        <route edges="C0B0 B0A0 A0A1 A1B1"/>
    </vehicle>
    <vehicle id="veh161" depart="314.00" departLane="best" departPos="base" departSpeed="max">
        <route edges="C0B0 B0B1 B1B2 B2A2 A2A1"/>
    </vehicle>
    <vehicle id="veh162" depart="315.00" departLane="best" departPos="base" departSpeed="max">
        <route edges="C1C0 C0B0 B0B1 B1A1"/>
    </vehicle>
    <vehicle id="veh163" depart="316.00" departLane="best" departPos="base" departSpeed="max">
        <route edges="B1C1 C1B1 B1A1 A1A0 A0B0"/>
    </vehicle>
    <vehicle id="veh164" depart="317.00" departLane="best" departPos="base" departSpeed="max">
        <route edges="B2B1 B1C1 C1C0"/>
    </vehicle>
    <vehicle id="veh165" depart="318.00" departLane="best" departPos="base" departSpeed="max">
        <route edges="C1C2 C2B2 B2A2 A2A1 A1A0"/>
    </vehicle>
    <vehicle id="veh166" depart="319.00" departLane="best" departPos="base" departSpeed="max">
        <route edges="B0B1 B1A1 A1B1"/>
    </vehicle>
    <vehicle id="veh167" depart="320.00" departLane="best" departPos="base" departSpeed="max">
        <route edges="B2B1 B1B0 B0C0"/>
    </vehicle>
    <vehicle id="veh168" depart="321.00" departLane="best" departPos="base" departSpeed="max">
        <route edges="B1B2 B2A2 A2A1 A1A0"/>
    </vehicle>
    <vehicle id="veh169" depart="324.00" departLane="best" departPos="base" departSpeed="max">
        <route edges="B1A1 A1A0 A0B0 B0C0"/>
    </vehicle>
    <vehicle id="veh170" depart="325.00" departLane="best" departPos="base" departSpeed="max">
        <route edges="B0C0 C0C1 C1B1 B1A1 A1B1"/>
    </vehicle>
    <vehicle id="veh171" depart="326.00" departLane="best" departPos="base" departSpeed="max">
        <route edges="B2C2 C2C1 C1B1 B1B0"/>
    </vehicle>
    <vehicle id="veh172" depart="327.00" departLane="best" departPos="base" departSpeed="max">
        <route edges="A1A2 A2B2 B2C2 C2C1 C1C0"/>
    </vehicle>
    <vehicle id="veh173" depart="328.00" departLane="best" departPos="base" departSpeed="max">
        <route edges="C1B1 B1B2 B2A2"/>
    </vehicle>
    <vehicle id="veh174" depart="330.00" departLane="best" departPos="base" departSpeed="max">
        <route edges="B1C1 C1C0 C0B0 B0C0"/>
    </vehicle>
    <vehicle id="veh175" depart="333.00" departLane="best" departPos="base" departSpeed="max">
        <route edges="A2A1 A1B1 B1C1 C1C2"/>
    </vehicle>
    <vehicle id="veh176" depart="337.00" departLane="best" departPos="base" departSpeed="max">
        <route edges="C0B0 B0B1 B1A1 A1A0"/>
    </vehicle>
    <vehicle id="veh177" depart="339.00" departLane="best" departPos="base" departSpeed="max">
        <route edges="B1B0 B0B1 B1B2"/>
    </vehicle>
    <vehicle id="veh178" depart="340.00" departLane="best" departPos="base" departSpeed="max">
        <route edges="B1C1 C1C0"/>
    </vehicle>
    <vehicle id="veh179" depart="341.00" departLane="best" departPos="base" departSpeed="max">
        <route edges="B1A1 A1A0 A0B0 B0B1"/>
    </vehicle>
    <vehicle id="veh180" depart="342.00" departLane="best" departPos="base" departSpeed="max">
        <route edges="A2B2 B2C2 C2C1 C1C0"/>
    </vehicle>
    <vehicle id="veh181" depart="344.00" departLane="best" departPos="base" departSpeed="max">
        <route edges="A2B2 B2B1 B1B0 B0B1"/>
    </vehicle>
    <vehicle id="veh182" depart="346.00" departLane="best" departPos="base" departSpeed="max">
        <route edges="A1B1 B1B0 B0A0"/>
    </vehicle>
    <vehicle id="veh183" depart="347.00" departLane="best" departPos="base" departSpeed="max">
        <route edges="A1A2 A2B2 B2A2 A2A1"/>
    </vehicle>
    <vehicle id="veh184" depart="350.00" departLane="best" departPos="base" departSpeed="max">
        <route edges="B0A0 A0A1 A1B1 B1B2 B2A2"/>
    </vehicle>
    <vehicle id="veh185" depart="351.00" departLane="best" departPos="base" departSpeed="max">
        <route edges="A1A0 A0B0 B0B1 B1C1"/>
    </vehicle>
    <vehicle id="veh186" depart="352.00" departLane="best" departPos="base" departSpeed="max">